nohup: ignoring input
Kører fra: /home/ubuntu/dyna_pladebuk/Plade_300_150_4/differentmeshsizes/Convergence 2

  GREAT SUCCES: Alle filer fundet

  ITERATION 1/1
  Kører LS-DYNA...
 License option : check network license only


 ***************************************************************
 *            ANSYS 2023 R1          LEGAL NOTICES             *
 ***************************************************************
 *                                                             *
 * Copyright 1971-2022 ANSYS, Inc.  All rights reserved.       *
 * Unauthorized use, distribution or duplication is            *
 * prohibited.                                                 *
 *                                                             *
 * Ansys is a registered trademark of ANSYS, Inc. or its       *
 * subsidiaries in the United States or other countries.       *
 * See the ANSYS, Inc. online documentation or the ANSYS, Inc. *
 * documentation CD or online help for the complete Legal      *
 * Notice.                                                     *
 *                                                             *
 ***************************************************************
 *                                                             *
 * THIS ANSYS SOFTWARE PRODUCT AND PROGRAM DOCUMENTATION       *
 * INCLUDE TRADE SECRETS AND CONFIDENTIAL AND PROPRIETARY      *
 * PRODUCTS OF ANSYS, INC., ITS SUBSIDIARIES, OR LICENSORS.    *
 * The software products and documentation are furnished by    *
 * ANSYS, Inc. or its subsidiaries under a software license    *
 * agreement that contains provisions concerning               *
 * non-disclosure, copying, length and nature of use,          *
 * compliance with exporting laws, warranties, disclaimers,    *
 * limitations of liability, and remedies, and other           *
 * provisions.  The software products and documentation may be *
 * used, disclosed, transferred, or copied only in accordance  *
 * with the terms and conditions of that software license      *
 * agreement.                                                  *
 *                                                             *
 * ANSYS, Inc. is a UL registered                              *
 * ISO 9001:2015 company.                                      *
 *                                                             *
 ***************************************************************
 *                                                             *
 * This product is subject to U.S. laws governing export and   *
 * re-export.                                                  *
 *                                                             *
 * For U.S. Government users, except as specifically granted   *
 * by the ANSYS, Inc. software license agreement, the use,     *
 * duplication, or disclosure by the United States Government  *
 * is subject to restrictions stated in the ANSYS, Inc.        *
 * software license agreement and FAR 12.212 (for non-DOD      *
 * licenses).                                                  *
 *                                                             *
 ***************************************************************

      Date: 05/20/2026      Time: 09:09:53  
      ___________________________________________________ 
     |                                                   |
     |  LS-DYNA, A Program for Nonlinear Dynamic         |
     |  Analysis of Structures in Three Dimensions       |
     |  Date    : 12/12/2022    Time: 11:35:09           |
     |  Version : smp d R14                              |
     |  Revision: R14.0-515-g8a12796b62                  |
     |                                                   |
     |  Features enabled in this version:                |
     |    Shared Memory Parallel                         |
     |    CESE CHEMISTRY EM ICFD STOCHASTIC_PARTICLES    |
     |    FFTW (multi-dimensional FFTW Library)          |
     |    ARPACK (nonsymmetric eigensolver library)      |
     |    ANSYSLIC enabled                               |
     |                                                   |
     |  Licensed to: Aalborg University -- 254321        |
     |  Issued by  : pranay_chaudhari_09182025           |
     |                                                   |
     |  Platform   : Xeon64 System                       |
     |  OS Level   : Linux 4.4.49 uom                    |
     |  Compiler   : Intel Fortran Compiler 19.0 SSE2    |
     |  Hostname   : dyna-network2                       |
     |  Precision  : Double precision (I8R8)             |
     |                                                   |
     |  Unauthorized use infringes Ansys, Inc. copyrights|
     |___________________________________________________|

 > i=main.k ncpu=8

 Executing with LSTC network license

 Command line options: i=main.k 
                       ncpu=8

 Input file: main.k                                                                          

 The native file format       : 64-bit small endian
 Memory size from default     :   100000000

 on UNIX computers note the following change:

 ctrl-c interrupts ls-dyna and prompts for a sense  switch.
 type the desired sense switch: sw1., sw2., etc. to continue
 the execution.  ls-dyna will respond as explained in the users manual

    type                      response
   -----   ------------------------------------------------------------
   quit    ls-dyna terminates.
   stop    ls-dyna terminates.
   sw1.    a restart file is written and ls-dyna terminates.
   sw2.    ls-dyna responds with time and cycle numbers.    
   sw3.    a restart file is written and ls-dyna continues calculations.
   sw4.    a plot state is written and ls-dyna continues calculations.
   sw5.    ls-dyna enters interactive graphics phase.
   swa.    ls-dyna flushes all output i/o buffers.
   swb.    a dynain is written and ls-dyna continues calculations.
   swc.    a restart and dynain are written and ls-dyna continues calculations.
   swd.    a restart and dynain are written and ls-dyna terminates.
   swe.    stop dynamic relaxation just as though convergence
   endtime=time change the termination time
   lpri    toggle implicit lin. alg. solver output on/off.
   nlpr    toggle implicit nonlinear solver output on/off.
   iter    toggle implicit output to d3iter database on/off.
   prof    output timing data to messag and continue.
   conv    force implicit nonlinear convergence for current time step.
   ttrm    terminate implicit time step, reduce time step, retry time step.
   rtrm    terminate implicit at end of current time step.


 ********  notice  ********  notice  ********  notice  ********
 *                                                            *
 * This is the LS-DYNA Finite Element code.                   *
 *                                                            *
 * Neither LST nor the authors assume any responsibility for  *
 * the validity, accuracy, or applicability of any results    *
 * obtained from this system. Users must verify their own     *
 * results.                                                   *
 *                                                            *
 * LST endeavors to make the LS-DYNA code as complete,        *
 * accurate and easy to use as possible.                      *
 * Suggestions and comments are welcomed.  Please report any  *
 * errors encountered in either the documentation or results  *
 * immediately to LST through your site focus.                *
 *                                                            *
 * Copyright (C) 1990-2021                                    *
 * by Livermore Software Technology, LLC                      *
 * All rights reserved                                        *
 *                                                            *
 ********  notice  ********  notice  ********  notice  ********

 Beginning of keyword reader                                   05/20/26 09:09:54
 
 *** Error 10087 (KEY+87)
     in *INCLUDE file name:
     File boundary+geo.k does not exist
     Keyword read will continue but numerous errors may result

                                                               05/20/26 09:09:54
 Open include file: MAT_CWM355.k
 
 *** Error 10087 (KEY+87)
     in *INCLUDE file name:
     File boundary+geo.k does not exist
     Keyword read will continue but numerous errors may result
 
 *** Error 10144 (KEY+144)
      
     segment set for convection b.c. # 1 is not found.
     This is #420420 in the input order)
 
 *** Error 10144 (KEY+144)
     CHECKING BOUNDARY THERMAL WELD TRAJECTORY INPUT
     node set for boundary thermal traj weld # 1 is not found.
     This is #20 in the input order)
 
 *** Error 10144 (KEY+144)
     CHECKING BOUNDARY THERMAL WELD TRAJECTORY INPUT
     segment set for boundary thermal traj weld # 1 is not found.
     This is #569 in the input order)
 
 *** Error 10133 (KEY+133)
     input data failed with: 8 errors

 E r r o r   t e r m i n a t i o n                             05/20/26 09:09:54

 Memory required to complete solution   :     182K
 Additional dynamically allocated memory:    2099K
                                   Total:    2281K

 T i m i n g   i n f o r m a t i o n
                        CPU(seconds)   %CPU  Clock(seconds) %Clock
  ----------------------------------------------------------------
  Keyword Processing ... 1.7029E-01    5.31     2.1286E-02    4.77
    KW Reading ......... 4.7966E-02    1.50     5.9970E-03    1.34
    KW Writing ......... 1.6350E-02    0.51     2.0430E-03    0.46
  Initialization ....... 3.0339E+00   94.69     4.2536E-01   95.23
  ----------------------------------------------------------------
  T o t a l s            3.2042E+00  100.00     4.4665E-01  100.00

 Problem time       =    0.0000E+00
 Problem cycle      =         0
 Total CPU time     =         3 seconds (   0 hours  0 minutes  3 seconds)
 CPU time per zone cycle  =          0.000 picoseconds
 Clock time per zone cycle=          0.000 picoseconds

 Number of CPU's    8
 NLQ used/max     192/  192
 Start time   05/20/2026 09:09:54  
 End time     05/20/2026 09:09:54  
 Elapsed time       0 second  for       0 cycles using  8 SMP threads
             (      0 hour   0 minute   0 second )

 E r r o r   t e r m i n a t i o n                             05/20/26 09:09:54
  ERROR: LS-DYNA fejlede – stopper
