Kører fra: /home/ubuntu/dyna_pladebuk/Plade_300_150_4/differentmeshsizes/Convergence 2

  GREAT SUCCES: Alle filer fundet

  ITERATION 1/1
  Kører LS-DYNA...
 License option : check network license only


 ***************************************************************
 *            ANSYS 2023 R1          LEGAL NOTICES             *
 ***************************************************************
 *                                                             *
 * Copyright 1971-2022 ANSYS, Inc.  All rights reserved.       *
 * Unauthorized use, distribution or duplication is            *
 * prohibited.                                                 *
 *                                                             *
 * Ansys is a registered trademark of ANSYS, Inc. or its       *
 * subsidiaries in the United States or other countries.       *
 * See the ANSYS, Inc. online documentation or the ANSYS, Inc. *
 * documentation CD or online help for the complete Legal      *
 * Notice.                                                     *
 *                                                             *
 ***************************************************************
 *                                                             *
 * THIS ANSYS SOFTWARE PRODUCT AND PROGRAM DOCUMENTATION       *
 * INCLUDE TRADE SECRETS AND CONFIDENTIAL AND PROPRIETARY      *
 * PRODUCTS OF ANSYS, INC., ITS SUBSIDIARIES, OR LICENSORS.    *
 * The software products and documentation are furnished by    *
 * ANSYS, Inc. or its subsidiaries under a software license    *
 * agreement that contains provisions concerning               *
 * non-disclosure, copying, length and nature of use,          *
 * compliance with exporting laws, warranties, disclaimers,    *
 * limitations of liability, and remedies, and other           *
 * provisions.  The software products and documentation may be *
 * used, disclosed, transferred, or copied only in accordance  *
 * with the terms and conditions of that software license      *
 * agreement.                                                  *
 *                                                             *
 * ANSYS, Inc. is a UL registered                              *
 * ISO 9001:2015 company.                                      *
 *                                                             *
 ***************************************************************
 *                                                             *
 * This product is subject to U.S. laws governing export and   *
 * re-export.                                                  *
 *                                                             *
 * For U.S. Government users, except as specifically granted   *
 * by the ANSYS, Inc. software license agreement, the use,     *
 * duplication, or disclosure by the United States Government  *
 * is subject to restrictions stated in the ANSYS, Inc.        *
 * software license agreement and FAR 12.212 (for non-DOD      *
 * licenses).                                                  *
 *                                                             *
 ***************************************************************

      Date: 05/20/2026      Time: 15:05:29  
      ___________________________________________________ 
     |                                                   |
     |  LS-DYNA, A Program for Nonlinear Dynamic         |
     |  Analysis of Structures in Three Dimensions       |
     |  Date    : 12/12/2022    Time: 11:35:09           |
     |  Version : smp d R14                              |
     |  Revision: R14.0-515-g8a12796b62                  |
     |                                                   |
     |  Features enabled in this version:                |
     |    Shared Memory Parallel                         |
     |    CESE CHEMISTRY EM ICFD STOCHASTIC_PARTICLES    |
     |    FFTW (multi-dimensional FFTW Library)          |
     |    ARPACK (nonsymmetric eigensolver library)      |
     |    ANSYSLIC enabled                               |
     |                                                   |
     |  Licensed to: Aalborg University -- 254321        |
     |  Issued by  : pranay_chaudhari_09182025           |
     |                                                   |
     |  Platform   : Xeon64 System                       |
     |  OS Level   : Linux 4.4.49 uom                    |
     |  Compiler   : Intel Fortran Compiler 19.0 SSE2    |
     |  Hostname   : dyna-network2                       |
     |  Precision  : Double precision (I8R8)             |
     |                                                   |
     |  Unauthorized use infringes Ansys, Inc. copyrights|
     |___________________________________________________|

 > i=main.k ncpu=8

 Executing with LSTC network license

 Command line options: i=main.k 
                       ncpu=8

 Input file: main.k                                                                          

 The native file format       : 64-bit small endian
 Memory size from default     :   100000000

 on UNIX computers note the following change:

 ctrl-c interrupts ls-dyna and prompts for a sense  switch.
 type the desired sense switch: sw1., sw2., etc. to continue
 the execution.  ls-dyna will respond as explained in the users manual

    type                      response
   -----   ------------------------------------------------------------
   quit    ls-dyna terminates.
   stop    ls-dyna terminates.
   sw1.    a restart file is written and ls-dyna terminates.
   sw2.    ls-dyna responds with time and cycle numbers.    
   sw3.    a restart file is written and ls-dyna continues calculations.
   sw4.    a plot state is written and ls-dyna continues calculations.
   sw5.    ls-dyna enters interactive graphics phase.
   swa.    ls-dyna flushes all output i/o buffers.
   swb.    a dynain is written and ls-dyna continues calculations.
   swc.    a restart and dynain are written and ls-dyna continues calculations.
   swd.    a restart and dynain are written and ls-dyna terminates.
   swe.    stop dynamic relaxation just as though convergence
   endtime=time change the termination time
   lpri    toggle implicit lin. alg. solver output on/off.
   nlpr    toggle implicit nonlinear solver output on/off.
   iter    toggle implicit output to d3iter database on/off.
   prof    output timing data to messag and continue.
   conv    force implicit nonlinear convergence for current time step.
   ttrm    terminate implicit time step, reduce time step, retry time step.
   rtrm    terminate implicit at end of current time step.


 ********  notice  ********  notice  ********  notice  ********
 *                                                            *
 * This is the LS-DYNA Finite Element code.                   *
 *                                                            *
 * Neither LST nor the authors assume any responsibility for  *
 * the validity, accuracy, or applicability of any results    *
 * obtained from this system. Users must verify their own     *
 * results.                                                   *
 *                                                            *
 * LST endeavors to make the LS-DYNA code as complete,        *
 * accurate and easy to use as possible.                      *
 * Suggestions and comments are welcomed.  Please report any  *
 * errors encountered in either the documentation or results  *
 * immediately to LST through your site focus.                *
 *                                                            *
 * Copyright (C) 1990-2021                                    *
 * by Livermore Software Technology, LLC                      *
 * All rights reserved                                        *
 *                                                            *
 ********  notice  ********  notice  ********  notice  ********

 Beginning of keyword reader                                   05/20/26 15:05:29

                                                               05/20/26 15:05:29
 Open include file: MAT_CWM355.k

                                                               05/20/26 15:05:29
 Open include file: boundary+geo.k

 Memory required to process keyword     :     272892  
 Additional dynamic memory required     :    3060959  


 input of data is completed

 initial kinetic energy = 0.00000000E+00

 Memory required for implicit solution  :      1293835

 termination time                  = 1.200E+02

 Thermal dynamically allocated memory   :     948K

 Memory required to begin solution      :    1294K
 Linear Alg dynamically allocated memory:      71K
 Additional dynamically allocated memory:    8348K
                                   Total:      11M

 initialization completed
       1 t 0.0000E+00 dt 1.00E-01 begin thermal step           05/20/26 15:05:36

 calculation with mass scaling for minimum dt
    added mass   =   0.0000E+00
    physical mass=   1.4040E-03
    ratio        =   0.0000E+00
       1 t 0.0000E+00 dt 1.00E-01 flush i/o buffers            05/20/26 15:05:39
       1 t 0.0000E+00 dt 1.00E-01 write d3plot file            05/20/26 15:05:39

 BEGIN implicit statics  step      1 t= 1.0000E-01             05/20/26 15:05:39


     ================================================
     ==            IMPLICIT USAGE ALERT            ==
     ================================================
     == Memory Management for Implicit has changed ==
     == after R10.  Please use:                    ==
     ==       memory=     2M                       ==
     ================================================

forrtl: No such file or directory
forrtl: severe (28): CLOSE error, unit 64, file "Unknown"
Image              PC                Routine            Line        Source             
dyna_d             000000000E0462DB  Unknown               Unknown  Unknown
dyna_d             000000000E03865F  Unknown               Unknown  Unknown
dyna_d             000000000511E43C  Unknown               Unknown  Unknown
dyna_d             00000000051C778D  Unknown               Unknown  Unknown
dyna_d             00000000051B6603  Unknown               Unknown  Unknown
dyna_d             0000000005084A38  Unknown               Unknown  Unknown
dyna_d             0000000005074265  Unknown               Unknown  Unknown
dyna_d             00000000015F429E  Unknown               Unknown  Unknown
dyna_d             00000000015D84BE  Unknown               Unknown  Unknown
dyna_d             0000000001717C0B  Unknown               Unknown  Unknown
dyna_d             000000000042E8FF  Unknown               Unknown  Unknown
dyna_d             000000000041E822  Unknown               Unknown  Unknown
libc.so.6          00007F66C21B0D90  Unknown               Unknown  Unknown
libc.so.6          00007F66C21B0E40  __libc_start_main     Unknown  Unknown
dyna_d             000000000041E724  Unknown               Unknown  Unknown
  ERROR: LS-DYNA fejlede – stopper
                                                                                                                                                                                                                                                                                                                                                                                                                                                                                                                                                                                                                                                                                                                                                                                                                                                                                                                                                                                                                                                                                                                                                                                                                                                                                                                                                                                                                                                                                                                                                                                                                                                                                                                                                                                                                                                                                                                                                                                                                                                                                                                                                                                                                                                                                                                                                                                                                                                                                                                                                                                                                                                                                                                                                                                                                                                                                                                                                                                                                                                                                                                                                                                                                                                                                                                                                                                                                                                                                                                                                                                                                                                                                                                                                                                                                                                                                                                                                                                                                                                                                                                                                                                                                                                                                                                                                                                                                                                                                                                                                                                                                                                                                                                                                                                                                                                                                                                                                                                                                                                                                                                                                                                                                                                                                                                                                                                                                                                                                                                                                                                                                                                                                                                                                                                                                                                                                                                                                                                                                                                                                                                                                                                                                                                                                                                                                                                                                                                                                                                                                                                                                                                                                                                                                                                                                                                                                                                                                                                                                                                                                                                                                                                                                                                                                                                                                                                                                                                                                                                                                                                                                                                                                                                                                                                                                                                                                                                                                                                                                                                                                                                                                                                                                                                                                                                                                                                                                                                                                                                                                                                                                                                                                                                                                                                                                                                                                                                                                                                                                                                                                                                                                                                                                                                                                                                                                                                                                                                                                                                                                                                                                                                                                                                                                                                                                                                                                                                                                                                                                                                                                                                                                                                                                                                                                                                                                                                                                                                                                                                                                                                                                                                                                                                                                                                                                                                                                                                                                                                                                                                                                                                                                                                                                                                                                                                                                                                                                                                                                                                                                                                                                                                                                                                                                                                                                                                                                                                                                                                                                                                                                                                                                                                                                                                                                                                                                                                                                                                                                                                                                                                                                                                                                                                                                                                                                                                                                                                                                                                                                                                                                                                                                                                                                                                                                                                                                                                                                                                                                                                                                                                                                                                                                                                                                                                                                                                                                                                                                                                                                                                                                                                                                                                                                                                                                                                                                                                                                                                                                                                                                                                                                                                                                                                                                                                                                                                                                                                                                                                                                                                                                                                                                                                                                                                                                                                                                                                                                                                                                                                                                                                                                                                                                                                                                                                                                                                                                                                                                                                                                                                                                                                                                                                                                                                                                                                                                                                                                                                                                                                                                                                                                                                                                                                                                                                                                                                                                                                                                                                                                                                                                                                                                                                                                                                                                                                                                                                                                                                                                                                                                                                                                                                                                                                                                                                                                                                                                                                                                                                                                                                                                                                                                                                                                                                                                                                                                                                                                                                                                                                                                                                                                                                                                                                                                                                                                                                                                                                                                                                                                                                                                                                                                                                                                                                                                                                                                                                                                                                                                                                                                                                                                                                                                                                                                                                                                                                                                                                                                                                                                                                                                                                                                                                                                                                                                                                                                                                                                                                                                                                                                                                                                                                                                                                                                                                                                                                                                                                                                                                                                                                                                                                                                                                                                                                                                                                                                                                                                                                                                                                                                                                                                                                                                                                                                                                                                                                                                                                                                                                                                                                                                                                                                                                                                                                                                                                                                                                                                                                                                                                                                                                                                                                                                                                                                                                                                                                                                                                                                                                                                                                                                                                                                                                                                                                                                                                                                                                                                                                                                                                                                                                                                                                                                                                                                                                                                                                                                                                                                                                                                                                                                                                                                                                                                                                                                                                                                                                                                                                                                                                                                                                                                                                                                                                                                                                                                                                                                                                                                                                                                                                                                                                                                                                                                                                                                                                                                                                                                                                                                                                                                                                                                                                                                                                                                                                                                                                                                                                                                                                                                                                                                                                                                                                                                                                                                                                                                                                                                                                                                                                                                                                                                                                                                                                                                                                                                                                                                                                                                                                                                                                                                                                                                                                                                                                                                                                                                                                                                                                                                                                                                                                                                                                                                                                                                                                                                                                                                                                                                                                                                                                                                                                                                                                                                                                                                                                                                                                                                                                                                                                                                                                                                                                                                                                                                                                                                                                                                                                                                                                                                                                                                                                                                                                                                                                                                                                                                                                                                                                                                                                                                                                                                                                                                                                                                                                                                                                                                                                                                                                                                                                                                                                                                                                                                                                                                                                                                                                                                                                                                                                                                                                                                                                                                                                                                                                                                                                                                                                                                                                                                                                                                                                                                                                                                                                                                                                                                                                                                                                                                                                                                                                                                                                                                                                                                                                                                                                                                                                                                                                                                                                                                                                                                                                                                                                                                                                                                                                                                                                                                                                                                                                                                                                                                                                                                                                                                                                                                                                                                                                                                                                                                                                                                                                                                                                                                                                                                                                                                                                                                                                                                                                                                                                                                                                                                                                                                                                                                                                                                                                                                                                                                                                                                                                                                                                                                                                                                                                                                                                                                                                                                                                                                                                                                                                                                                                                                                                                                                                                                                                                                                                                                                                                                                                                                                                                                                                                                                                                                                                                                                                                                                                                                                                                                                                                                                                                                                                                                                                                                                                                                                                                                                                                                                                                                                                                                                                                                                                                                                                                                                                                                                                                                                                                                                                                                                                                                                                                                                                                                                                                                                                                                                                                                                                                                                                                                                                                                                                                                                                                                                                                                                                                                                                                                                                                                                                                                                                                                                                                                                                                                                                                                                                                                                                                                                                                                                                                                                                                                                                                                                                                                                                                                                                                                                                                                                                                                                                                                                                                                                                                                                                                                                                                                                                                                                                                                                                                                                                                                                                                                                                                                                                                                                                                                                                                                                                                                                                                                                                                                                                                                                                                                                                                                                                                                                                                                                                                                                                                                                                                                                                                                                                                                                                                                                                                                                                                                                                                                                                                                                                                                                                                                                                                                                                                                                                                                                                                                                                                                                                                                                                                                                                                                                                                                                                                                                                                                                                                                                                                                                                                                                                                                                                                                                                                                                                                                                                                                                                                                                                                                                                                                                                                                                                                                                                                                                                                                                                                                                                                                                                                                                                                                                                                                                                                                                                                                                                                                                                                                                                                                                                                                                                                                                                                                                                                                                                                                                                                                                                                                                                                                                                                                                                                                                                                                                                                                                                                                                                                                                                                                                                                                                                                                                                                                                                                                                                                                                                                                                                                                                                                                                                                                                                                                                                                                                                                                                                                                                                                                                                                                                                                                                                                                                                                                                                                                                                                                                                                                                                                                                                                                                                                                                                                                                                                                                                                                                                                                                                                                                                                                                                                                                                                                                                                                                                                                                                                                                                                                                                                                                                                                                                                                                                                                                                                                                                                                                                                                                                                                                                                                                                                                                                                                                                                                                                                                                                                                                                                                                                                                                                                                                                                                                                                                                                                                                                                                                                                                                                                                                                                                                                                                                                                                                                                                                                                                                                                                                                                                                                                                                                                                                                                                                                                                                                                                                                                                                                                                                                                                                                                                                                                                                                                                                                                                                                                                                                                                                                                                                                                                                                                                                                                                                                                                                                                                                                                                                                                                                                                                                                                                                                                                                                                                                                                                                                                                                                                                                                                                                                                                                                                                                                                                                                                                                                                                                                                                                                                                                                                                                                                                                                                                                                                                                                                                                                                                                                                                                                                                                                                                                                                                                                                                                                                                                                                                                                                                                                                                                                                                                                                                                                                                                                                                                                                                                                                                                                                                                                                                                                                                                                                                                                                                                                                                                                                                                                                                                                                                                                                                                                                                                                                                                                                                                                                                                                                                                                                                                                                                                                                                                                                                                                                                                                                                                                                                                                                                                                                                                                                                                                                                                                                                                                                                                                                                                                                                                                                                                                                                                                                                                                                                                                                                                                                                                                                                                                                                                                                                                                                                                                                                                                                                                                                                                                                                                                                                                                                                                                                                                                                                                                                                                                                                                                                                                                                                                                                                                                                                                                                                                                                                                                                                                                                                                                                                                                                                                                                                                                                                                                                                                                                                                                                                                                                                                                                                                                                                                                                                                                                                                                                                                                                                                                                                                                                                                                                                                                                                                                                                                                                                                                                                                                                                                                                                                                                                                                                                                                                                                                                                                                                                                                                                                                                                                                                                                                                                                                                                                                                                                                                                                                                                                                                                                                                                                                                                                                                                                                                                                                                                                                                                                                                                                                                                                                                                                                                                                                                                                                                                                                                                                                                                                                                                                                                                                                                                                                                                                                                                                                                                                                                                                                                                                                                                                                                                                                                                                                                                                                                                                                                                                                                                                                                                                                                                                                                                                                                                                                                                                                                                                                                                                                                                                                                                                                                                                                                                                                                                                                                                                                                                                                                                                                                                                                                                                                                                                                                                                                                                                                                                                                                                                                                                                                                                                                                                                                                                                                                                                                                                                                                                                                                                                                                                                                                                                                                                                                                                                                                                                                                                                                                                                                                                                                                                                                                                                                                                                                                                                                                                                                                                                                                                                                                                                                                                                                                                                                                                                                                                                                                                                                                                                                                                                                                                                                                                                                                                                                                                                                                                                                                                                                                                                                                                                                                                                                                                                                                                                                                                                                                                                                                                                                                                                                                                                                                                                                                                                                                                                                                                                                                                                                                                                                                                                                                                                                                                                                                                                                                                                                                                                                                                                                                                                                                                                                                                                                                                                                                                                                                                                                                                                                                                                                                                                                                                                                                                                                                                                                                                                                                                                                                                                                                                                                                                                                                                                                                                                                                                                                                                                                                                                                                                                                                                                                                                                                                                                                                                                                                                                                                                                                                                                                                                                                                                                                                                                                                                                                                                                                                                                                                                                                                                                                                                                                                                                                                                                                                                                                                                                                                                                                                                                                                                                                                                                                                                                                                                                                                                                                                                                                                                                                                                                                                                                                                                                                                                                                                                                                                                                                                                                                                                                                                                                                                                                                                                                                                                                                                                                                                                                                                                                                                                                                                                                                                                                                                                                                                                                                                                                                                                                                                                                                                                                                                                                                                                                                                                                                                                                                                   
[...]
 Equilibrium established after     2 iterations                05/20/26 15:42:36
    4652 t 1.1620E+02 dt 1.00E-01 write d3plot file            05/20/26 15:42:37

 BEGIN implicit statics  step   1163 t= 1.1630E+02             05/20/26 15:42:37
    1163 t 1.1620E+02 dt 1.00E-01 begin thermal step           05/20/26 15:42:37
 Iteration:   1     *|du|/|u| =  2.7409699E-04     *Ei/E0 =  7.9965243E-04
 Iteration:   2     *|du|/|u| =  1.0750154E-06     *Ei/E0 =  7.3283508E-08
 Equilibrium established after     2 iterations                05/20/26 15:42:41

 BEGIN implicit statics  step   1164 t= 1.1640E+02             05/20/26 15:42:41
    1164 t 1.1630E+02 dt 1.00E-01 begin thermal step           05/20/26 15:42:41
 Iteration:   1     *|du|/|u| =  2.7286494E-04     *Ei/E0 =  7.9206499E-04
 Iteration:   2     *|du|/|u| =  1.0687841E-06     *Ei/E0 =  7.2446448E-08
 Equilibrium established after     2 iterations                05/20/26 15:42:45

 BEGIN implicit statics  step   1165 t= 1.1650E+02             05/20/26 15:42:45
    1165 t 1.1640E+02 dt 1.00E-01 begin thermal step           05/20/26 15:42:45
 Iteration:   1     *|du|/|u| =  2.7163837E-04     *Ei/E0 =  7.8455091E-04
 Iteration:   2     *|du|/|u| =  1.0625914E-06     *Ei/E0 =  7.1619244E-08
 Equilibrium established after     2 iterations                05/20/26 15:42:48

 BEGIN implicit statics  step   1166 t= 1.1660E+02             05/20/26 15:42:49
    1166 t 1.1650E+02 dt 1.00E-01 begin thermal step           05/20/26 15:42:49
 Iteration:   1     *|du|/|u| =  2.7041724E-04     *Ei/E0 =  7.7710947E-04
 Iteration:   2     *|du|/|u| =  1.0564370E-06     *Ei/E0 =  7.0801775E-08
 Equilibrium established after     2 iterations                05/20/26 15:42:53

 BEGIN implicit statics  step   1167 t= 1.1670E+02             05/20/26 15:42:53
    1167 t 1.1660E+02 dt 1.00E-01 begin thermal step           05/20/26 15:42:53
 Iteration:   1     *|du|/|u| =  2.6920155E-04     *Ei/E0 =  7.6973993E-04
 Iteration:   2     *|du|/|u| =  1.0503207E-06     *Ei/E0 =  6.9993923E-08
 Equilibrium established after     2 iterations                05/20/26 15:42:58
    4672 t 1.1670E+02 dt 1.00E-01 write d3plot file            05/20/26 15:42:58

 BEGIN implicit statics  step   1168 t= 1.1680E+02             05/20/26 15:42:58
    1168 t 1.1670E+02 dt 1.00E-01 begin thermal step           05/20/26 15:42:58
 Iteration:   1     *|du|/|u| =  2.6799126E-04     *Ei/E0 =  7.6244160E-04
 Iteration:   2     *|du|/|u| =  1.0442422E-06     *Ei/E0 =  6.9195569E-08
 Equilibrium established after     2 iterations                05/20/26 15:43:03

 BEGIN implicit statics  step   1169 t= 1.1690E+02             05/20/26 15:43:03
    1169 t 1.1680E+02 dt 1.00E-01 begin thermal step           05/20/26 15:43:03
 Iteration:   1     *|du|/|u| =  2.6678635E-04     *Ei/E0 =  7.5521376E-04
 Iteration:   2     *|du|/|u| =  1.0382014E-06     *Ei/E0 =  6.8406600E-08
 Equilibrium established after     2 iterations                05/20/26 15:43:09

 BEGIN implicit statics  step   1170 t= 1.1700E+02             05/20/26 15:43:09
    1170 t 1.1690E+02 dt 1.00E-01 begin thermal step           05/20/26 15:43:09
 Iteration:   1     *|du|/|u| =  2.6558680E-04     *Ei/E0 =  7.4805573E-04
 Iteration:   2     *|du|/|u| =  1.0321978E-06     *Ei/E0 =  6.7626899E-08
 Equilibrium established after     2 iterations                05/20/26 15:43:12

 BEGIN implicit statics  step   1171 t= 1.1710E+02             05/20/26 15:43:12
    1171 t 1.1700E+02 dt 1.00E-01 begin thermal step           05/20/26 15:43:12
 Iteration:   1     *|du|/|u| =  2.6439259E-04     *Ei/E0 =  7.4096681E-04
 Iteration:   2     *|du|/|u| =  1.0262313E-06     *Ei/E0 =  6.6856355E-08
 Equilibrium established after     2 iterations                05/20/26 15:43:16

 BEGIN implicit statics  step   1172 t= 1.1720E+02             05/20/26 15:43:17
    1172 t 1.1710E+02 dt 1.00E-01 begin thermal step           05/20/26 15:43:17
 Iteration:   1     *|du|/|u| =  2.6320369E-04     *Ei/E0 =  7.3394633E-04
 Iteration:   2     *|du|/|u| =  1.0203016E-06     *Ei/E0 =  6.6094856E-08
 Equilibrium established after     2 iterations                05/20/26 15:43:23
    4692 t 1.1720E+02 dt 1.00E-01 write d3plot file            05/20/26 15:43:23

 BEGIN implicit statics  step   1173 t= 1.1730E+02             05/20/26 15:43:23
    1173 t 1.1720E+02 dt 1.00E-01 begin thermal step           05/20/26 15:43:23
 Iteration:   1     *|du|/|u| =  2.6202008E-04     *Ei/E0 =  7.2699361E-04
 Iteration:   2     *|du|/|u| =  1.0144085E-06     *Ei/E0 =  6.5342292E-08
 Equilibrium established after     2 iterations                05/20/26 15:43:26

 BEGIN implicit statics  step   1174 t= 1.1740E+02             05/20/26 15:43:26
    1174 t 1.1730E+02 dt 1.00E-01 begin thermal step           05/20/26 15:43:26
 Iteration:   1     *|du|/|u| =  2.6084173E-04     *Ei/E0 =  7.2010797E-04
 Iteration:   2     *|du|/|u| =  1.0085517E-06     *Ei/E0 =  6.4598554E-08
 Equilibrium established after     2 iterations                05/20/26 15:43:30

 BEGIN implicit statics  step   1175 t= 1.1750E+02             05/20/26 15:43:30
    1175 t 1.1740E+02 dt 1.00E-01 begin thermal step           05/20/26 15:43:30
 Iteration:   1     *|du|/|u| =  2.5966864E-04     *Ei/E0 =  7.1328876E-04
 Iteration:   2     *|du|/|u| =  1.0027309E-06     *Ei/E0 =  6.3863536E-08
 Equilibrium established after     2 iterations                05/20/26 15:43:35

 BEGIN implicit statics  step   1176 t= 1.1760E+02             05/20/26 15:43:35
    1176 t 1.1750E+02 dt 1.00E-01 begin thermal step           05/20/26 15:43:35
 Iteration:   1     *|du|/|u| =  2.5850076E-04     *Ei/E0 =  7.0653533E-04
 Iteration:   2     *|du|/|u| =  9.9694602E-07     *Ei/E0 =  6.3137131E-08
 Equilibrium established after     2 iterations                05/20/26 15:43:39

 BEGIN implicit statics  step   1177 t= 1.1770E+02             05/20/26 15:43:40
    1177 t 1.1760E+02 dt 1.00E-01 begin thermal step           05/20/26 15:43:40
 Iteration:   1     *|du|/|u| =  2.5733809E-04     *Ei/E0 =  6.9984702E-04
 Iteration:   2     *|du|/|u| =  9.9119673E-07     *Ei/E0 =  6.2419235E-08
 Equilibrium established after     2 iterations                05/20/26 15:43:43
    4712 t 1.1770E+02 dt 1.00E-01 write d3plot file            05/20/26 15:43:43

 BEGIN implicit statics  step   1178 t= 1.1780E+02             05/20/26 15:43:43
    1178 t 1.1770E+02 dt 1.00E-01 begin thermal step           05/20/26 15:43:43
 Iteration:   1     *|du|/|u| =  2.5618059E-04     *Ei/E0 =  6.9322320E-04
 Iteration:   2     *|du|/|u| =  9.8548278E-07     *Ei/E0 =  6.1709744E-08
 Equilibrium established after     2 iterations                05/20/26 15:43:46

 BEGIN implicit statics  step   1179 t= 1.1790E+02             05/20/26 15:43:46
    1179 t 1.1780E+02 dt 1.00E-01 begin thermal step           05/20/26 15:43:46
 Iteration:   1     *|du|/|u| =  2.5502825E-04     *Ei/E0 =  6.8666322E-04
 Iteration:   2     *|du|/|u| =  9.7980394E-07     *Ei/E0 =  6.1008558E-08
 Equilibrium established after     2 iterations                05/20/26 15:43:50

 BEGIN implicit statics  step   1180 t= 1.1800E+02             05/20/26 15:43:50
    1180 t 1.1790E+02 dt 1.00E-01 begin thermal step           05/20/26 15:43:50
 Iteration:   1     *|du|/|u| =  2.5388104E-04     *Ei/E0 =  6.8016647E-04
 Iteration:   2     *|du|/|u| =  9.7415999E-07     *Ei/E0 =  6.0315575E-08
 Equilibrium established after     2 iterations                05/20/26 15:43:53

 BEGIN implicit statics  step   1181 t= 1.1810E+02             05/20/26 15:43:55
    1181 t 1.1800E+02 dt 1.00E-01 begin thermal step           05/20/26 15:43:55
 Iteration:   1     *|du|/|u| =  2.5273895E-04     *Ei/E0 =  6.7373231E-04
 Iteration:   2     *|du|/|u| =  9.6855070E-07     *Ei/E0 =  5.9630696E-08
 Equilibrium established after     2 iterations                05/20/26 15:43:59

 BEGIN implicit statics  step   1182 t= 1.1820E+02             05/20/26 15:43:59
    1182 t 1.1810E+02 dt 1.00E-01 begin thermal step           05/20/26 15:43:59
 Iteration:   1     *|du|/|u| =  2.5160195E-04     *Ei/E0 =  6.6736014E-04
 Iteration:   2     *|du|/|u| =  9.6297581E-07     *Ei/E0 =  5.8953822E-08
 Equilibrium established after     2 iterations                05/20/26 15:44:02
    4732 t 1.1820E+02 dt 1.00E-01 write d3plot file            05/20/26 15:44:02

 BEGIN implicit statics  step   1183 t= 1.1830E+02             05/20/26 15:44:02
    1183 t 1.1820E+02 dt 1.00E-01 begin thermal step           05/20/26 15:44:02
 Iteration:   1     *|du|/|u| =  2.5047001E-04     *Ei/E0 =  6.6104934E-04
 Iteration:   2     *|du|/|u| =  9.5743512E-07     *Ei/E0 =  5.8284858E-08
 Equilibrium established after     2 iterations                05/20/26 15:44:06

 BEGIN implicit statics  step   1184 t= 1.1840E+02             05/20/26 15:44:06
    1184 t 1.1830E+02 dt 1.00E-01 begin thermal step           05/20/26 15:44:06
 Iteration:   1     *|du|/|u| =  2.4934312E-04     *Ei/E0 =  6.5479930E-04
 Iteration:   2     *|du|/|u| =  9.5192839E-07     *Ei/E0 =  5.7623707E-08
 Equilibrium established after     2 iterations                05/20/26 15:44:14

 BEGIN implicit statics  step   1185 t= 1.1850E+02             05/20/26 15:44:15
    1185 t 1.1840E+02 dt 1.00E-01 begin thermal step           05/20/26 15:44:15
 Iteration:   1     *|du|/|u| =  2.4822126E-04     *Ei/E0 =  6.4860944E-04
 Iteration:   2     *|du|/|u| =  9.4645538E-07     *Ei/E0 =  5.6970275E-08
 Equilibrium established after     2 iterations                05/20/26 15:44:19

 BEGIN implicit statics  step   1186 t= 1.1860E+02             05/20/26 15:44:19
    1186 t 1.1850E+02 dt 1.00E-01 begin thermal step           05/20/26 15:44:19
 Iteration:   1     *|du|/|u| =  2.4710440E-04     *Ei/E0 =  6.4247916E-04
 Iteration:   2     *|du|/|u| =  9.4101588E-07     *Ei/E0 =  5.6324469E-08
 Equilibrium established after     2 iterations                05/20/26 15:44:22

 BEGIN implicit statics  step   1187 t= 1.1870E+02             05/20/26 15:44:22
    1187 t 1.1860E+02 dt 1.00E-01 begin thermal step           05/20/26 15:44:22
 Iteration:   1     *|du|/|u| =  2.4599252E-04     *Ei/E0 =  6.3640787E-04
 Iteration:   2     *|du|/|u| =  9.3560967E-07     *Ei/E0 =  5.5686196E-08
 Equilibrium established after     2 iterations                05/20/26 15:44:25
    4752 t 1.1870E+02 dt 1.00E-01 write d3plot file            05/20/26 15:44:25

 BEGIN implicit statics  step   1188 t= 1.1880E+02             05/20/26 15:44:25
    1188 t 1.1870E+02 dt 1.00E-01 begin thermal step           05/20/26 15:44:25
 Iteration:   1     *|du|/|u| =  2.4488560E-04     *Ei/E0 =  6.3039500E-04
 Iteration:   2     *|du|/|u| =  9.3023653E-07     *Ei/E0 =  5.5055366E-08
 Equilibrium established after     2 iterations                05/20/26 15:44:30

 BEGIN implicit statics  step   1189 t= 1.1890E+02             05/20/26 15:44:31
    1189 t 1.1880E+02 dt 1.00E-01 begin thermal step           05/20/26 15:44:31
 Iteration:   1     *|du|/|u| =  2.4378362E-04     *Ei/E0 =  6.2443996E-04
 Iteration:   2     *|du|/|u| =  9.2489621E-07     *Ei/E0 =  5.4431889E-08
 Equilibrium established after     2 iterations                05/20/26 15:44:34

 BEGIN implicit statics  step   1190 t= 1.1900E+02             05/20/26 15:44:34
    1190 t 1.1890E+02 dt 1.00E-01 begin thermal step           05/20/26 15:44:34
 Iteration:   1     *|du|/|u| =  2.4268655E-04     *Ei/E0 =  6.1854220E-04
 Iteration:   2     *|du|/|u| =  9.1958853E-07     *Ei/E0 =  5.3815677E-08
 Equilibrium established after     2 iterations                05/20/26 15:44:37

 BEGIN implicit statics  step   1191 t= 1.1910E+02             05/20/26 15:44:37
    1191 t 1.1900E+02 dt 1.00E-01 begin thermal step           05/20/26 15:44:37
 Iteration:   1     *|du|/|u| =  2.4159439E-04     *Ei/E0 =  6.1270115E-04
 Iteration:   2     *|du|/|u| =  9.1431325E-07     *Ei/E0 =  5.3206641E-08
 Equilibrium established after     2 iterations                05/20/26 15:44:41

 BEGIN implicit statics  step   1192 t= 1.1920E+02             05/20/26 15:44:41
    1192 t 1.1910E+02 dt 1.00E-01 begin thermal step           05/20/26 15:44:41
 Iteration:   1     *|du|/|u| =  2.4050710E-04     *Ei/E0 =  6.0691625E-04
 Iteration:   2     *|du|/|u| =  9.0907017E-07     *Ei/E0 =  5.2604696E-08
 Equilibrium established after     2 iterations                05/20/26 15:44:47
    4772 t 1.1920E+02 dt 1.00E-01 write d3plot file            05/20/26 15:44:48

 BEGIN implicit statics  step   1193 t= 1.1930E+02             05/20/26 15:44:48
    1193 t 1.1920E+02 dt 1.00E-01 begin thermal step           05/20/26 15:44:48
 Iteration:   1     *|du|/|u| =  2.3942466E-04     *Ei/E0 =  6.0118696E-04
 Iteration:   2     *|du|/|u| =  9.0385907E-07     *Ei/E0 =  5.2009756E-08
 Equilibrium established after     2 iterations                05/20/26 15:44:51

 BEGIN implicit statics  step   1194 t= 1.1940E+02             05/20/26 15:44:51
    1194 t 1.1930E+02 dt 1.00E-01 begin thermal step           05/20/26 15:44:51
 Iteration:   1     *|du|/|u| =  2.3834706E-04     *Ei/E0 =  5.9551272E-04
 Iteration:   2     *|du|/|u| =  8.9867973E-07     *Ei/E0 =  5.1421736E-08
 Equilibrium established after     2 iterations                05/20/26 15:44:54

 BEGIN implicit statics  step   1195 t= 1.1950E+02             05/20/26 15:44:54
    1195 t 1.1940E+02 dt 1.00E-01 begin thermal step           05/20/26 15:44:54
 Iteration:   1     *|du|/|u| =  2.3727427E-04     *Ei/E0 =  5.8989299E-04
 Iteration:   2     *|du|/|u| =  8.9353195E-07     *Ei/E0 =  5.0840554E-08
 Equilibrium established after     2 iterations                05/20/26 15:44:57

 BEGIN implicit statics  step   1196 t= 1.1960E+02             05/20/26 15:44:57
    1196 t 1.1950E+02 dt 1.00E-01 begin thermal step           05/20/26 15:44:57
 Iteration:   1     *|du|/|u| =  2.3620627E-04     *Ei/E0 =  5.8432725E-04
 Iteration:   2     *|du|/|u| =  8.8841552E-07     *Ei/E0 =  5.0266128E-08
 Equilibrium established after     2 iterations                05/20/26 15:45:01

 BEGIN implicit statics  step   1197 t= 1.1970E+02             05/20/26 15:45:01
    1197 t 1.1960E+02 dt 1.00E-01 begin thermal step           05/20/26 15:45:01
 Iteration:   1     *|du|/|u| =  2.3514304E-04     *Ei/E0 =  5.7881496E-04
 Iteration:   2     *|du|/|u| =  8.8333022E-07     *Ei/E0 =  4.9698376E-08
 Equilibrium established after     2 iterations                05/20/26 15:45:04
    4792 t 1.1970E+02 dt 1.00E-01 write d3plot file            05/20/26 15:45:04

 BEGIN implicit statics  step   1198 t= 1.1980E+02             05/20/26 15:45:04
    1198 t 1.1970E+02 dt 1.00E-01 begin thermal step           05/20/26 15:45:04
 Iteration:   1     *|du|/|u| =  2.3408456E-04     *Ei/E0 =  5.7335560E-04
 Iteration:   2     *|du|/|u| =  8.7827586E-07     *Ei/E0 =  4.9137218E-08
 Equilibrium established after     2 iterations                05/20/26 15:45:07

 BEGIN implicit statics  step   1199 t= 1.1990E+02             05/20/26 15:45:07
    1199 t 1.1980E+02 dt 1.00E-01 begin thermal step           05/20/26 15:45:07
 Iteration:   1     *|du|/|u| =  2.3303082E-04     *Ei/E0 =  5.6794865E-04
 Iteration:   2     *|du|/|u| =  8.7325224E-07     *Ei/E0 =  4.8582574E-08
 Equilibrium established after     2 iterations                05/20/26 15:45:11

 BEGIN implicit statics  step   1200 t= 1.1995E+02             05/20/26 15:45:11
    1200 t 1.1990E+02 dt 1.00E-01 begin thermal step           05/20/26 15:45:11
         t 1.2000E+02             end   thermal step soln=   1 05/20/26 15:45:12
 Iteration:   1     *|du|/|u| =  1.1616439E-04     *Ei/E0 =  1.4065829E-04
 Iteration:   2     *|du|/|u| =  5.5367521E-07     *Ei/E0 =  2.1138301E-08
 Equilibrium established after     2 iterations                05/20/26 15:45:14

 BEGIN implicit statics  step   1201 t= 1.2000E+02             05/20/26 15:45:14
 Iteration:   1     *|du|/|u| =  1.1603440E-04     *Ei/E0 =  1.4063555E-04
 Iteration:   2     *|du|/|u| =  4.7171259E-07     *Ei/E0 =  1.5118567E-08
 Equilibrium established after     2 iterations                05/20/26 15:45:15
    4808 t 1.2000E+02 dt 5.00E-02 write d3plot file            05/20/26 15:45:15
 
 *** termination time reached ***
    4808 t 1.2000E+02 dt 5.00E-02 write d3dump01 file          05/20/26 15:45:15

 N o r m a l    t e r m i n a t i o n                          05/20/26 15:45:15

 Thermal dynamically allocated memory   :     948K

 Memory required to complete solution   :    1480K
 Linear Alg dynamically allocated memory:    5284K
 Additional dynamically allocated memory:      86M
                                   Total:      94M

 T i m i n g   i n f o r m a t i o n
                        CPU(seconds)   %CPU  Clock(seconds) %Clock
  ----------------------------------------------------------------
  Keyword Processing ... 1.5642E+00    0.01     2.8443E-01    0.01
    KW Reading ......... 1.0355E+00    0.00     1.6265E-01    0.00
  Initialization ....... 4.8810E+00    0.02     1.3421E+00    0.03
    Init Proc Phase 1 .. 2.1138E+00    0.01     8.5217E-01    0.02
    Init Proc Phase 2 .. 1.1989E-02    0.00     9.3092E-02    0.00
  Element processing ... 5.3589E+03   20.85     6.7055E+02   14.25
    Solids ............. 5.3436E+03   20.79     6.6911E+02   14.22
    E Other ............ 1.0058E+01    0.04     1.1084E+00    0.02
  Binary databases ..... 1.5789E+01    0.06     1.9674E+00    0.04
  ASCII database ....... 1.8696E+00    0.01     2.1211E-01    0.00
  Contact algorithm .... 3.5606E+00    0.01     4.5351E-02    0.00
  Implicit ............. 8.1476E+01    0.32     1.2048E+01    0.26
  Implicit Nonlinear ... 2.8442E+03   11.06     1.0377E+03   22.05
    Imp. NL force mod .. 1.5407E+02    0.60     1.9249E+01    0.41
  Implicit Lin. Alg. ... 1.2477E+04   48.54     2.3046E+03   48.97
    Imp. LA Mtx Assemb . 1.0885E+03    4.23     1.3688E+02    2.91
    Imp. LA Factor ..... 9.1682E+03   35.67     1.4490E+03   30.79
    Imp. LA Solve ...... 2.2204E+03    8.64     7.1869E+02   15.27
  Thermal .............. 4.8888E+03   19.02     6.7274E+02   14.30
    Element processing . 1.7868E+03    6.95     2.2822E+02    4.85
    Solver ............. 6.6253E+01    0.26     1.9222E+01    0.41
    Other .............. 3.0357E+03   11.81     4.2529E+02    9.04
  Time step size ....... 1.9195E+00    0.01     5.2524E-02    0.00
  Others ............... 3.5739E+00    0.01     3.5742E-01    0.01
  Misc. 1 .............. 5.7693E+00    0.02     1.7109E+00    0.04
    Scale Masses ....... 2.4278E-01    0.00     1.0442E-01    0.00
  Misc. 3 .............. 1.4041E+00    0.01     1.5282E-01    0.00
  Misc. 4 .............. 1.3402E+01    0.05     1.9878E+00    0.04
    Timestep Init ...... 4.8046E+00    0.02     8.8439E-01    0.02
    Apply Loads ........ 1.3661E+00    0.01     2.1334E-01    0.00
    Compute exwork ..... 4.2645E-01    0.00     5.5149E-02    0.00
  ----------------------------------------------------------------
  T o t a l s            2.5705E+04  100.00     4.7057E+03  100.00

 Problem time       =    1.2000E+02
 Problem cycle      =      4808
 Total CPU time     =     25705 seconds (   7 hours  8 minutes 25 seconds)
 CPU time per zone cycle  =     534490.779 nanoseconds
 Clock time per zone cycle=      97839.374 nanoseconds

 Number of CPU's    8
 NLQ used/max     192/  192
 Start time   05/20/2026 14:26:50  
 End time     05/20/2026 15:45:15  
 Elapsed time    4705 seconds for    4808 cycles using  8 SMP threads
             (      1 hour  18 minutes 25 seconds)

 N o r m a l    t e r m i n a t i o n                          05/20/26 15:45:15
  GREAT SUCCES: LS-DYNA færdig – eksporterer geometri...
(EE) 
Fatal server error:
(EE) Server is already active for display 99
	If this server is no longer running, remove /tmp/.X99-lock
	and start again.
(EE) 
Maximum number of clients reached/home/ubuntu/dyna/lsprepost4.12_common/lspp412_mesa: line 8: 20000 Segmentation fault      (core dumped) $DN/lsprepost $*
  ERROR: Eksport fejlede – stopper
