Kører fra: /home/ubuntu/dyna_pladebuk/Plade_300_150_4/differentmeshsizes/Convergence 01

  GREAT SUCCES: Alle filer fundet

  ITERATION 1/1
  Kører LS-DYNA...
 License option : check network license only


 ***************************************************************
 *            ANSYS 2023 R1          LEGAL NOTICES             *
 ***************************************************************
 *                                                             *
 * Copyright 1971-2022 ANSYS, Inc.  All rights reserved.       *
 * Unauthorized use, distribution or duplication is            *
 * prohibited.                                                 *
 *                                                             *
 * Ansys is a registered trademark of ANSYS, Inc. or its       *
 * subsidiaries in the United States or other countries.       *
 * See the ANSYS, Inc. online documentation or the ANSYS, Inc. *
 * documentation CD or online help for the complete Legal      *
 * Notice.                                                     *
 *                                                             *
 ***************************************************************
 *                                                             *
 * THIS ANSYS SOFTWARE PRODUCT AND PROGRAM DOCUMENTATION       *
 * INCLUDE TRADE SECRETS AND CONFIDENTIAL AND PROPRIETARY      *
 * PRODUCTS OF ANSYS, INC., ITS SUBSIDIARIES, OR LICENSORS.    *
 * The software products and documentation are furnished by    *
 * ANSYS, Inc. or its subsidiaries under a software license    *
 * agreement that contains provisions concerning               *
 * non-disclosure, copying, length and nature of use,          *
 * compliance with exporting laws, warranties, disclaimers,    *
 * limitations of liability, and remedies, and other           *
 * provisions.  The software products and documentation may be *
 * used, disclosed, transferred, or copied only in accordance  *
 * with the terms and conditions of that software license      *
 * agreement.                                                  *
 *                                                             *
 * ANSYS, Inc. is a UL registered                              *
 * ISO 9001:2015 company.                                      *
 *                                                             *
 ***************************************************************
 *                                                             *
 * This product is subject to U.S. laws governing export and   *
 * re-export.                                                  *
 *                                                             *
 * For U.S. Government users, except as specifically granted   *
 * by the ANSYS, Inc. software license agreement, the use,     *
 * duplication, or disclosure by the United States Government  *
 * is subject to restrictions stated in the ANSYS, Inc.        *
 * software license agreement and FAR 12.212 (for non-DOD      *
 * licenses).                                                  *
 *                                                             *
 ***************************************************************

      Date: 05/20/2026      Time: 15:05:29  
      ___________________________________________________ 
     |                                                   |
     |  LS-DYNA, A Program for Nonlinear Dynamic         |
     |  Analysis of Structures in Three Dimensions       |
     |  Date    : 12/12/2022    Time: 11:35:09           |
     |  Version : smp d R14                              |
     |  Revision: R14.0-515-g8a12796b62                  |
     |                                                   |
     |  Features enabled in this version:                |
     |    Shared Memory Parallel                         |
     |    CESE CHEMISTRY EM ICFD STOCHASTIC_PARTICLES    |
     |    FFTW (multi-dimensional FFTW Library)          |
     |    ARPACK (nonsymmetric eigensolver library)      |
     |    ANSYSLIC enabled                               |
     |                                                   |
     |  Licensed to: Aalborg University -- 254321        |
     |  Issued by  : pranay_chaudhari_09182025           |
     |                                                   |
     |  Platform   : Xeon64 System                       |
     |  OS Level   : Linux 4.4.49 uom                    |
     |  Compiler   : Intel Fortran Compiler 19.0 SSE2    |
     |  Hostname   : dyna-network2                       |
     |  Precision  : Double precision (I8R8)             |
     |                                                   |
     |  Unauthorized use infringes Ansys, Inc. copyrights|
     |___________________________________________________|

 > i=main.k ncpu=8

 Executing with LSTC network license

 Command line options: i=main.k 
                       ncpu=8

 Input file: main.k                                                                          

 The native file format       : 64-bit small endian
 Memory size from default     :   100000000

 on UNIX computers note the following change:

 ctrl-c interrupts ls-dyna and prompts for a sense  switch.
 type the desired sense switch: sw1., sw2., etc. to continue
 the execution.  ls-dyna will respond as explained in the users manual

    type                      response
   -----   ------------------------------------------------------------
   quit    ls-dyna terminates.
   stop    ls-dyna terminates.
   sw1.    a restart file is written and ls-dyna terminates.
   sw2.    ls-dyna responds with time and cycle numbers.    
   sw3.    a restart file is written and ls-dyna continues calculations.
   sw4.    a plot state is written and ls-dyna continues calculations.
   sw5.    ls-dyna enters interactive graphics phase.
   swa.    ls-dyna flushes all output i/o buffers.
   swb.    a dynain is written and ls-dyna continues calculations.
   swc.    a restart and dynain are written and ls-dyna continues calculations.
   swd.    a restart and dynain are written and ls-dyna terminates.
   swe.    stop dynamic relaxation just as though convergence
   endtime=time change the termination time
   lpri    toggle implicit lin. alg. solver output on/off.
   nlpr    toggle implicit nonlinear solver output on/off.
   iter    toggle implicit output to d3iter database on/off.
   prof    output timing data to messag and continue.
   conv    force implicit nonlinear convergence for current time step.
   ttrm    terminate implicit time step, reduce time step, retry time step.
   rtrm    terminate implicit at end of current time step.


 ********  notice  ********  notice  ********  notice  ********
 *                                                            *
 * This is the LS-DYNA Finite Element code.                   *
 *                                                            *
 * Neither LST nor the authors assume any responsibility for  *
 * the validity, accuracy, or applicability of any results    *
 * obtained from this system. Users must verify their own     *
 * results.                                                   *
 *                                                            *
 * LST endeavors to make the LS-DYNA code as complete,        *
 * accurate and easy to use as possible.                      *
 * Suggestions and comments are welcomed.  Please report any  *
 * errors encountered in either the documentation or results  *
 * immediately to LST through your site focus.                *
 *                                                            *
 * Copyright (C) 1990-2021                                    *
 * by Livermore Software Technology, LLC                      *
 * All rights reserved                                        *
 *                                                            *
 ********  notice  ********  notice  ********  notice  ********

 Beginning of keyword reader                                   05/20/26 15:05:29

                                                               05/20/26 15:05:29
 Open include file: MAT_CWM355.k

                                                               05/20/26 15:05:29
 Open include file: boundary+geo.k

 Memory required to process keyword     :     225905  
 Additional dynamic memory required     :    2415421  


 input of data is completed

 initial kinetic energy = 0.00000000E+00

 Memory required for implicit solution  :       505185

 termination time                  = 1.200E+02

 Thermal dynamically allocated memory   :     329K

 Memory required to begin solution      :     506K
 Linear Alg dynamically allocated memory:      28K
 Additional dynamically allocated memory:    3914K
                                   Total:    4775K

 initialization completed
       1 t 0.0000E+00 dt 1.00E-01 begin thermal step           05/20/26 15:05:36

 calculation with mass scaling for minimum dt
    added mass   =   0.0000E+00
    physical mass=   1.4040E-03
    ratio        =   0.0000E+00
       1 t 0.0000E+00 dt 1.00E-01 flush i/o buffers            05/20/26 15:05:40
       1 t 0.0000E+00 dt 1.00E-01 write d3plot file            05/20/26 15:05:40

 BEGIN implicit statics  step      1 t= 1.0000E-01             05/20/26 15:05:40


     ================================================
     ==            IMPLICIT USAGE ALERT            ==
     ================================================
     == Memory Management for Implicit has changed ==
     == after R10.  Please use:                    ==
     ==       memory=     1M                       ==
     ================================================

 Iteration:   1     *|du|/|u| =  1.0000000E+00     *Ei/E0 =  1.0000000E+00
 Iteration:   2     *|du|/|u| =  4.6756144E-02     *Ei/E0 =  2.2280482E-02
 Iteration:   3     *|du|/|u| =  4.6917364E-03     *Ei/E0 =  1.0172582E-05
 Equilibrium established after     3 iterations                05/20/26 15:05:43
    
 estimated total cpu time          =     19505 sec (       5 hrs 25 mins)
 estimated cpu time to complete    =     19484 sec (       5 hrs 24 mins)
 estimated total clock time        =      5643 sec (       1 hrs 34 mins)
 estimated clock time to complete  =      5632 sec (       1 hrs 33 mins)

 BEGIN implicit statics  step      2 t= 2.0000E-01             05/20/26 15:05:44
       2 t 1.0000E-01 dt 1.00E-01 begin thermal step           05/20/26 15:05:44
 Iteration:   1     *|du|/|u| =  2.6792228E-03     *Ei/E0 =  1.0000000E+00
 Iteration:   2     *|du|/|u| =  8.8902086E-05     *Ei/E0 =  1.4370244E-08
 Equilibrium established after     2 iterations                05/20/26 15:05:47

 BEGIN implicit statics  step      3 t= 3.0000E-01             05/20/26 15:05:47
       3 t 2.0000E-01 dt 1.00E-01 begin thermal step           05/20/26 15:05:47
 Iteration:   1     *|du|/|u| =  2.6214677E-03     *Ei/E0 =  9.8168000E-01
 Iteration:   2     *|du|/|u| =  2.5901730E-05     *Ei/E0 =  1.1672781E-08
 Equilibrium established after     2 iterations                05/20/26 15:05:48

 BEGIN implicit statics  step      4 t= 4.0000E-01             05/20/26 15:05:48
       4 t 3.0000E-01 dt 1.00E-01 begin thermal step           05/20/26 15:05:48
 Iteration:   1     *|du|/|u| =  3.2390969E-03     *Ei/E0 =  1.0000000E+00
 Iteration:   2     *|du|/|u| =  4.0617494E-05     *Ei/E0 =  2.2535908E-08
 Equilibrium established after     2 iterations                05/20/26 15:05:52

 BEGIN implicit statics  step      5 t= 5.0000E-01             05/20/26 15:05:52
       5 t 4.0000E-01 dt 1.00E-01 begin thermal step           05/20/26 15:05:52
 Iteration:   1     *|du|/|u| =  3.5171488E-03     *Ei/E0 =  1.0000000E+00
 Iteration:   2     *|du|/|u| =  5.0475662E-05     *Ei/E0 =  2.6574630E-08
 Equilibrium established after     2 iterations                05/20/26 15:05:53
      24 t 5.0000E-01 dt 1.00E-01 write d3plot file            05/20/26 15:05:53

 BEGIN implicit statics  step      6 t= 6.0000E-01             05/20/26 15:05:53
       6 t 5.0000E-01 dt 1.00E-01 begin thermal step           05/20/26 15:05:53
 Iteration:   1     *|du|/|u| =  3.5468739E-03     *Ei/E0 =  9.5929734E-01
 Iteration:   2     *|du|/|u| =  5.1611011E-05     *Ei/E0 =  2.3513119E-08
 Equilibrium established after     2 iterations                05/20/26 15:05:56

 BEGIN implicit statics  step      7 t= 7.0000E-01             05/20/26 15:05:56
       7 t 6.0000E-01 dt 1.00E-01 begin thermal step           05/20/26 15:05:56
 Iteration:   1     *|du|/|u| =  3.5767569E-03     *Ei/E0 =  9.2392165E-01
 Iteration:   2     *|du|/|u| =  5.2013098E-05     *Ei/E0 =  2.1478114E-08
 Equilibrium established after     2 iterations                05/20/26 15:05:58

 BEGIN implicit statics  step      8 t= 8.0000E-01             05/20/26 15:05:58
       8 t 7.0000E-01 dt 1.00E-01 begin thermal step           05/20/26 15:05:58
 Iteration:   1     *|du|/|u| =  3.6072812E-03     *Ei/E0 =  8.9270657E-01
 Iteration:   2     *|du|/|u| =  5.2335833E-05     *Ei/E0 =  2.0153077E-08
 Equilibrium established after     2 iterations                05/20/26 15:05:59

 BEGIN implicit statics  step      9 t= 9.0000E-01             05/20/26 15:05:59
       9 t 8.0000E-01 dt 1.00E-01 begin thermal step           05/20/26 15:05:59
 Iteration:   1     *|du|/|u| =  3.6368920E-03     *Ei/E0 =  8.6453248E-01
 Iteration:   2     *|du|/|u| =  5.2597696E-05     *Ei/E0 =  1.9225642E-08
 Equilibrium established after     2 iterations                05/20/26 15:06:01
    
 estimated total cpu time          =     10257 sec (       2 hrs 50 mins)
 estimated cpu time to complete    =     10175 sec (       2 hrs 49 mins)
 estimated total clock time        =      2697 sec (       0 hrs 44 mins)
 estimated clock time to complete  =      2670 sec (       0 hrs 44 mins)

 BEGIN implicit statics  step     10 t= 1.0000E+00             05/20/26 15:06:01
      10 t 9.0000E-01 dt 1.00E-01 begin thermal step           05/20/26 15:06:01
 Iteration:   1     *|du|/|u| =  3.6659838E-03     *Ei/E0 =  8.3892409E-01
 Iteration:   2     *|du|/|u| =  5.2799441E-05     *Ei/E0 =  1.8609875E-08
 Equilibrium established after     2 iterations                05/20/26 15:06:04

 BEGIN implicit statics  step     11 t= 1.1000E+00             05/20/26 15:06:04
      11 t 1.0000E+00 dt 1.00E-01 begin thermal step           05/20/26 15:06:04
 Iteration:   1     *|du|/|u| =  3.6941192E-03     *Ei/E0 =  8.1538507E-01
 Iteration:   2     *|du|/|u| =  5.2944701E-05     *Ei/E0 =  1.8227627E-08
 Equilibrium established after     2 iterations                05/20/26 15:06:05
      48 t 1.1000E+00 dt 1.00E-01 write d3plot file            05/20/26 15:06:05

 BEGIN implicit statics  step     12 t= 1.2000E+00             05/20/26 15:06:05
      12 t 1.1000E+00 dt 1.00E-01 begin thermal step           05/20/26 15:06:05
 Iteration:   1     *|du|/|u| =  3.7206071E-03     *Ei/E0 =  7.9347608E-01
 Iteration:   2     *|du|/|u| =  5.3037290E-05     *Ei/E0 =  1.7973972E-08
 Equilibrium established after     2 iterations                05/20/26 15:06:09

 BEGIN implicit statics  step     13 t= 1.3000E+00             05/20/26 15:06:10
      13 t 1.2000E+00 dt 1.00E-01 begin thermal step           05/20/26 15:06:10
 Iteration:   1     *|du|/|u| =  4.2057053E-03     *Ei/E0 =  1.0000000E+00
 Iteration:   2     *|du|/|u| =  7.1621866E-05     *Ei/E0 =  3.1638734E-08
 Equilibrium established after     2 iterations                05/20/26 15:06:13

 BEGIN implicit statics  step     14 t= 1.4000E+00             05/20/26 15:06:14
      14 t 1.3000E+00 dt 1.00E-01 begin thermal step           05/20/26 15:06:14
 Iteration:   1     *|du|/|u| =  4.5278955E-03     *Ei/E0 =  1.0000000E+00
 Iteration:   2     *|du|/|u| =  8.7966690E-05     *Ei/E0 =  3.8726057E-08
 Equilibrium established after     2 iterations                05/20/26 15:06:16

 BEGIN implicit statics  step     15 t= 1.5000E+00             05/20/26 15:06:16
      15 t 1.4000E+00 dt 1.00E-01 begin thermal step           05/20/26 15:06:16
 Iteration:   1     *|du|/|u| =  4.5386769E-03     *Ei/E0 =  9.6054286E-01
 Iteration:   2     *|du|/|u| =  8.8999349E-05     *Ei/E0 =  3.7853944E-08
 Equilibrium established after     2 iterations                05/20/26 15:06:17
      64 t 1.5000E+00 dt 1.00E-01 write d3plot file            05/20/26 15:06:18

 BEGIN implicit statics  step     16 t= 1.6000E+00             05/20/26 15:06:18
      16 t 1.5000E+00 dt 1.00E-01 begin thermal step           05/20/26 15:06:18
 Iteration:   1     *|du|/|u| =  4.5483450E-03     *Ei/E0 =  9.2429139E-01
 Iteration:   2     *|du|/|u| =  8.7819935E-05     *Ei/E0 =  3.7127101E-08
 Equilibrium established after     2 iterations                05/20/26 15:06:21

 BEGIN implicit statics  step     17 t= 1.7000E+00             05/20/26 15:06:21
      17 t 1.6000E+00 dt 1.00E-01 begin thermal step           05/20/26 15:06:21
 Iteration:   1     *|du|/|u| =  4.5556916E-03     *Ei/E0 =  8.9004337E-01
 Iteration:   2     *|du|/|u| =  8.6369982E-05     *Ei/E0 =  3.6425704E-08
 Equilibrium established after     2 iterations                05/20/26 15:06:22

 BEGIN implicit statics  step     18 t= 1.8000E+00             05/20/26 15:06:22
      18 t 1.7000E+00 dt 1.00E-01 begin thermal step           05/20/26 15:06:22
 Iteration:   1     *|du|/|u| =  4.5600793E-03     *Ei/E0 =  8.5735539E-01
 Iteration:   2     *|du|/|u| =  8.4791045E-05     *Ei/E0 =  3.5724318E-08
 Equilibrium established after     2 iterations                05/20/26 15:06:23

 BEGIN implicit statics  step     19 t= 1.9000E+00             05/20/26 15:06:23
      19 t 1.8000E+00 dt 1.00E-01 begin thermal step           05/20/26 15:06:23
 Iteration:   1     *|du|/|u| =  4.5624829E-03     *Ei/E0 =  8.2622527E-01
 Iteration:   2     *|du|/|u| =  8.3123021E-05     *Ei/E0 =  3.4999338E-08
 Equilibrium established after     2 iterations                05/20/26 15:06:26

 BEGIN implicit statics  step     20 t= 2.0000E+00             05/20/26 15:06:26
      20 t 1.9000E+00 dt 1.00E-01 begin thermal step           05/20/26 15:06:26
 Iteration:   1     *|du|/|u| =  5.2971717E-03     *Ei/E0 =  1.0000000E+00
 Iteration:   2     *|du|/|u| =  1.2132638E-04     *Ei/E0 =  6.0313140E-08
 Equilibrium established after     2 iterations                05/20/26 15:06:28
      84 t 2.0000E+00 dt 1.00E-01 write d3plot file            05/20/26 15:06:28

 BEGIN implicit statics  step     21 t= 2.1000E+00             05/20/26 15:06:28
      21 t 2.0000E+00 dt 1.00E-01 begin thermal step           05/20/26 15:06:28
 Iteration:   1     *|du|/|u| =  5.2906618E-03     *Ei/E0 =  9.5711736E-01
 Iteration:   2     *|du|/|u| =  1.2586524E-04     *Ei/E0 =  5.9338017E-08
 Equilibrium established after     2 iterations                05/20/26 15:06:29

 BEGIN implicit statics  step     22 t= 2.2000E+00             05/20/26 15:06:29
      22 t 2.1000E+00 dt 1.00E-01 begin thermal step           05/20/26 15:06:29
 Iteration:   1     *|du|/|u| =  5.2773772E-03     *Ei/E0 =  9.1604236E-01
 Iteration:   2     *|du|/|u| =  1.2296652E-04     *Ei/E0 =  5.7997790E-08
 Equilibrium established after     2 iterations                05/20/26 15:06:30

 BEGIN implicit statics  step     23 t= 2.3000E+00             05/20/26 15:06:30
      23 t 2.2000E+00 dt 1.00E-01 begin thermal step           05/20/26 15:06:30
 Iteration:   1     *|du|/|u| =  5.2609426E-03     *Ei/E0 =  8.7680027E-01
 Iteration:   2     *|du|/|u| =  1.1899579E-04     *Ei/E0 =  5.6451301E-08
 Equilibrium established after     2 iterations                05/20/26 15:06:32

 BEGIN implicit statics  step     24 t= 2.4000E+00             05/20/26 15:06:32
      24 t 2.3000E+00 dt 1.00E-01 begin thermal step           05/20/26 15:06:32
 Iteration:   1     *|du|/|u| =  5.2415408E-03     *Ei/E0 =  8.3915061E-01
 Iteration:   2     *|du|/|u| =  1.1485804E-04     *Ei/E0 =  5.4702112E-08
 Equilibrium established after     2 iterations                05/20/26 15:06:33

 BEGIN implicit statics  step     25 t= 2.5000E+00             05/20/26 15:06:34
      25 t 2.4000E+00 dt 1.00E-01 begin thermal step           05/20/26 15:06:34
 Iteration:   1     *|du|/|u| =  5.2193817E-03     *Ei/E0 =  8.0312098E-01
 Iteration:   2     *|du|/|u| =  1.1069920E-04     *Ei/E0 =  5.2781491E-08
 Equilibrium established after     2 iterations                05/20/26 15:06:35
     104 t 2.5000E+00 dt 1.00E-01 write d3plot file            05/20/26 15:06:35

 BEGIN implicit statics  step     26 t= 2.6000E+00             05/20/26 15:06:35
      26 t 2.5000E+00 dt 1.00E-01 begin thermal step           05/20/26 15:06:35
 Iteration:   1     *|du|/|u| =  5.1942895E-03     *Ei/E0 =  7.6862304E-01
 Iteration:   2     *|du|/|u| =  1.0652711E-04     *Ei/E0 =  5.0711816E-08
 Equilibrium established after     2 iterations                05/20/26 15:06:37

 BEGIN implicit statics  step     27 t= 2.7000E+00             05/20/26 15:06:37
      27 t 2.6000E+00 dt 1.00E-01 begin thermal step           05/20/26 15:06:37
 Iteration:   1     *|du|/|u| =  5.1650726E-03     *Ei/E0 =  7.3559251E-01
 Iteration:   2     *|du|/|u| =  1.0235645E-04     *Ei/E0 =  4.8507615E-08
 Equilibrium established after     2 iterations                05/20/26 15:06:40

 BEGIN implicit statics  step     28 t= 2.8000E+00             05/20/26 15:06:40
      28 t 2.7000E+00 dt 1.00E-01 begin thermal step           05/20/26 15:06:40
 Iteration:   1     *|du|/|u| =  5.1332298E-03     *Ei/E0 =  7.0399111E-01
 Iteration:   2     *|du|/|u| =  9.8234398E-05     *Ei/E0 =  4.6185218E-08
 Equilibrium established after     2 iterations                05/20/26 15:06:41

 BEGIN implicit statics  step     29 t= 2.9000E+00             05/20/26 15:06:41
      29 t 2.8000E+00 dt 1.00E-01 begin thermal step           05/20/26 15:06:41
 Iteration:   1     *|du|/|u| =  5.7332934E-03     *Ei/E0 =  9.1877716E-01
 Iteration:   2     *|du|/|u| =  1.2876603E-04     *Ei/E0 =  7.8518981E-08
 Equilibrium established after     2 iterations                05/20/26 15:06:42

 BEGIN implicit statics  step     30 t= 3.0000E+00             05/20/26 15:06:42
      30 t 2.9000E+00 dt 1.00E-01 begin thermal step           05/20/26 15:06:42
 Iteration:   1     *|du|/|u| =  5.7655021E-03     *Ei/E0 =  9.0519579E-01
 Iteration:   2     *|du|/|u| =  1.3551265E-04     *Ei/E0 =  8.0499362E-08
 Equilibrium established after     2 iterations                05/20/26 15:06:43
     124 t 3.0000E+00 dt 1.00E-01 write d3plot file            05/20/26 15:06:44

 BEGIN implicit statics  step     31 t= 3.1000E+00             05/20/26 15:06:44
      31 t 3.0000E+00 dt 1.00E-01 begin thermal step           05/20/26 15:06:44
 Iteration:   1     *|du|/|u| =  5.7175924E-03     *Ei/E0 =  8.6170003E-01
 Iteration:   2     *|du|/|u| =  1.3117681E-04     *Ei/E0 =  7.7069464E-08
 Equilibrium established after     2 iterations                05/20/26 15:06:45

 BEGIN implicit statics  step     32 t= 3.2000E+00             05/20/26 15:06:45
      32 t 3.1000E+00 dt 1.00E-01 begin thermal step           05/20/26 15:06:45
 Iteration:   1     *|du|/|u| =  5.6664970E-03     *Ei/E0 =  8.2032996E-01
 Iteration:   2     *|du|/|u| =  1.2476974E-04     *Ei/E0 =  7.3255684E-08
 Equilibrium established after     2 iterations                05/20/26 15:06:46

 BEGIN implicit statics  step     33 t= 3.3000E+00             05/20/26 15:06:46
      33 t 3.2000E+00 dt 1.00E-01 begin thermal step           05/20/26 15:06:46
 Iteration:   1     *|du|/|u| =  5.6129825E-03     *Ei/E0 =  7.8117691E-01
 Iteration:   2     *|du|/|u| =  1.1824461E-04     *Ei/E0 =  6.9258269E-08
 Equilibrium established after     2 iterations                05/20/26 15:06:47

 BEGIN implicit statics  step     34 t= 3.4000E+00             05/20/26 15:06:47
      34 t 3.3000E+00 dt 1.00E-01 begin thermal step           05/20/26 15:06:47
 Iteration:   1     *|du|/|u| =  5.5577920E-03     *Ei/E0 =  7.4422951E-01
 Iteration:   2     *|du|/|u| =  1.1191302E-04     *Ei/E0 =  6.5205441E-08
 Equilibrium established after     2 iterations                05/20/26 15:06:49

 BEGIN implicit statics  step     35 t= 3.5000E+00             05/20/26 15:06:49
      35 t 3.4000E+00 dt 1.00E-01 begin thermal step           05/20/26 15:06:49
 Iteration:   1     *|du|/|u| =  5.6387443E-03     *Ei/E0 =  7.5843152E-01
 Iteration:   2     *|du|/|u| =  1.1294738E-04     *Ei/E0 =  6.9659177E-08
 Equilibrium established after     2 iterations                05/20/26 15:06:52
     144 t 3.5000E+00 dt 1.00E-01 write d3plot file            05/20/26 15:06:53

 BEGIN implicit statics  step     36 t= 3.6000E+00             05/20/26 15:06:53
      36 t 3.5000E+00 dt 1.00E-01 begin thermal step           05/20/26 15:06:53
 Iteration:   1     *|du|/|u| =  6.1295414E-03     *Ei/E0 =  9.3525700E-01
 Iteration:   2     *|du|/|u| =  1.3930465E-04     *Ei/E0 =  1.0843779E-07
 Equilibrium established after     2 iterations                05/20/26 15:06:55

 BEGIN implicit statics  step     37 t= 3.7000E+00             05/20/26 15:06:55
      37 t 3.6000E+00 dt 1.00E-01 begin thermal step           05/20/26 15:06:55
 Iteration:   1     *|du|/|u| =  6.0610878E-03     *Ei/E0 =  8.8617399E-01
 Iteration:   2     *|du|/|u| =  1.3960351E-04     *Ei/E0 =  1.0336303E-07
 Equilibrium established after     2 iterations                05/20/26 15:06:57

 BEGIN implicit statics  step     38 t= 3.8000E+00             05/20/26 15:06:57
      38 t 3.7000E+00 dt 1.00E-01 begin thermal step           05/20/26 15:06:57
 Iteration:   1     *|du|/|u| =  5.9895750E-03     *Ei/E0 =  8.4022041E-01
 Iteration:   2     *|du|/|u| =  1.3232010E-04     *Ei/E0 =  9.7726790E-08
 Equilibrium established after     2 iterations                05/20/26 15:06:58

 BEGIN implicit statics  step     39 t= 3.9000E+00             05/20/26 15:06:58
      39 t 3.8000E+00 dt 1.00E-01 begin thermal step           05/20/26 15:06:58
 Iteration:   1     *|du|/|u| =  5.9160507E-03     *Ei/E0 =  7.9703349E-01
 Iteration:   2     *|du|/|u| =  1.2402898E-04     *Ei/E0 =  9.1794468E-08
 Equilibrium established after     2 iterations                05/20/26 15:07:00

 BEGIN implicit statics  step     40 t= 4.0000E+00             05/20/26 15:07:01
      40 t 3.9000E+00 dt 1.00E-01 begin thermal step           05/20/26 15:07:01
 Iteration:   1     *|du|/|u| =  5.8405460E-03     *Ei/E0 =  7.5635391E-01
 Iteration:   2     *|du|/|u| =  1.1595557E-04     *Ei/E0 =  8.5714132E-08
 Equilibrium established after     2 iterations                05/20/26 15:07:02
     164 t 4.0000E+00 dt 1.00E-01 write d3plot file            05/20/26 15:07:03

 BEGIN implicit statics  step     41 t= 4.1000E+00             05/20/26 15:07:03
      41 t 4.0000E+00 dt 1.00E-01 begin thermal step           05/20/26 15:07:03
 Iteration:   1     *|du|/|u| =  5.7624177E-03     *Ei/E0 =  7.1751601E-01
 Iteration:   2     *|du|/|u| =  1.0822048E-04     *Ei/E0 =  7.9578923E-08
 Equilibrium established after     2 iterations                05/20/26 15:07:03

 BEGIN implicit statics  step     42 t= 4.2000E+00             05/20/26 15:07:03
      42 t 4.1000E+00 dt 1.00E-01 begin thermal step           05/20/26 15:07:03
 Iteration:   1     *|du|/|u| =  5.6829708E-03     *Ei/E0 =  6.8117679E-01
 Iteration:   2     *|du|/|u| =  1.0094697E-04     *Ei/E0 =  7.3434449E-08
 Equilibrium established after     2 iterations                05/20/26 15:07:04

 BEGIN implicit statics  step     43 t= 4.3000E+00             05/20/26 15:07:04
      43 t 4.2000E+00 dt 1.00E-01 begin thermal step           05/20/26 15:07:04
 Iteration:   1     *|du|/|u| =  5.6025392E-03     *Ei/E0 =  6.4717672E-01
 Iteration:   2     *|du|/|u| =  9.4140397E-05     *Ei/E0 =  6.7392356E-08
 Equilibrium established after     2 iterations                05/20/26 15:07:06

 BEGIN implicit statics  step     44 t= 4.4000E+00             05/20/26 15:07:06
      44 t 4.3000E+00 dt 1.00E-01 begin thermal step           05/20/26 15:07:06
 Iteration:   1     *|du|/|u| =  5.5883220E-03     *Ei/E0 =  6.3689967E-01
 Iteration:   2     *|du|/|u| =  9.0558522E-05     *Ei/E0 =  6.5542906E-08
 Equilibrium established after     2 iterations                05/20/26 15:07:09

 BEGIN implicit statics  step     45 t= 4.5000E+00             05/20/26 15:07:09
      45 t 4.4000E+00 dt 1.00E-01 begin thermal step           05/20/26 15:07:09
 Iteration:   1     *|du|/|u| =  6.1097688E-03     *Ei/E0 =  8.1794602E-01
 Iteration:   2     *|du|/|u| =  1.1186910E-04     *Ei/E0 =  1.0547183E-07
 Equilibrium established after     2 iterations                05/20/26 15:07:12
     184 t 4.5000E+00 dt 1.00E-01 write d3plot file            05/20/26 15:07:12

 BEGIN implicit statics  step     46 t= 4.6000E+00             05/20/26 15:07:12
      46 t 4.5000E+00 dt 1.00E-01 begin thermal step           05/20/26 15:07:12
 Iteration:   1     *|du|/|u| =  6.0191917E-03     *Ei/E0 =  7.7458117E-01
 Iteration:   2     *|du|/|u| =  1.1120915E-04     *Ei/E0 =  9.9741788E-08
 Equilibrium established after     2 iterations                05/20/26 15:07:13

 BEGIN implicit statics  step     47 t= 4.7000E+00             05/20/26 15:07:13
      47 t 4.6000E+00 dt 1.00E-01 begin thermal step           05/20/26 15:07:13
 Iteration:   1     *|du|/|u| =  5.9270146E-03     *Ei/E0 =  7.3430193E-01
 Iteration:   2     *|du|/|u| =  1.0435124E-04     *Ei/E0 =  9.3557314E-08
 Equilibrium established after     2 iterations                05/20/26 15:07:14

 BEGIN implicit statics  step     48 t= 4.8000E+00             05/20/26 15:07:14
      48 t 4.7000E+00 dt 1.00E-01 begin thermal step           05/20/26 15:07:14
 Iteration:   1     *|du|/|u| =  5.8338495E-03     *Ei/E0 =  6.9679827E-01
 Iteration:   2     *|du|/|u| =  9.6855105E-05     *Ei/E0 =  8.7139136E-08
 Equilibrium established after     2 iterations                05/20/26 15:07:15

 BEGIN implicit statics  step     49 t= 4.9000E+00             05/20/26 15:07:15
      49 t 4.8000E+00 dt 1.00E-01 begin thermal step           05/20/26 15:07:15
 Iteration:   1     *|du|/|u| =  5.7400559E-03     *Ei/E0 =  6.6186049E-01
 Iteration:   2     *|du|/|u| =  8.9718123E-05     *Ei/E0 =  8.0632976E-08
 Equilibrium established after     2 iterations                05/20/26 15:07:16

 BEGIN implicit statics  step     50 t= 5.0000E+00             05/20/26 15:07:16
      50 t 4.9000E+00 dt 1.00E-01 begin thermal step           05/20/26 15:07:16
 Iteration:   1     *|du|/|u| =  5.6453558E-03     *Ei/E0 =  6.2892365E-01
 Iteration:   2     *|du|/|u| =  8.3026125E-05     *Ei/E0 =  7.4216880E-08
 Equilibrium established after     2 iterations                05/20/26 15:07:16

 BEGIN implicit statics  step     51 t= 5.1000E+00             05/20/26 15:07:16
      51 t 5.0000E+00 dt 1.00E-01 begin thermal step           05/20/26 15:07:16
 Iteration:   1     *|du|/|u| =  5.8116901E-03     *Ei/E0 =  6.8540427E-01
 Iteration:   2     *|du|/|u| =  8.6476197E-05     *Ei/E0 =  8.7810457E-08
 Equilibrium established after     2 iterations                05/20/26 15:07:18
     208 t 5.1000E+00 dt 1.00E-01 write d3plot file            05/20/26 15:07:18

 BEGIN implicit statics  step     52 t= 5.2000E+00             05/20/26 15:07:18
      52 t 5.1000E+00 dt 1.00E-01 begin thermal step           05/20/26 15:07:18
 Iteration:   1     *|du|/|u| =  6.1018177E-03     *Ei/E0 =  7.9176738E-01
 Iteration:   2     *|du|/|u| =  9.7705084E-05     *Ei/E0 =  1.1914070E-07
 Equilibrium established after     2 iterations                05/20/26 15:07:19

 BEGIN implicit statics  step     53 t= 5.3000E+00             05/20/26 15:07:19
      53 t 5.2000E+00 dt 1.00E-01 begin thermal step           05/20/26 15:07:19
 Iteration:   1     *|du|/|u| =  5.9950048E-03     *Ei/E0 =  7.4838215E-01
 Iteration:   2     *|du|/|u| =  9.4551036E-05     *Ei/E0 =  1.1313276E-07
 Equilibrium established after     2 iterations                05/20/26 15:07:20

 BEGIN implicit statics  step     54 t= 5.4000E+00             05/20/26 15:07:20
      54 t 5.3000E+00 dt 1.00E-01 begin thermal step           05/20/26 15:07:20
 Iteration:   1     *|du|/|u| =  5.8883510E-03     *Ei/E0 =  7.0855662E-01
 Iteration:   2     *|du|/|u| =  8.7685825E-05     *Ei/E0 =  1.0659683E-07
 Equilibrium established after     2 iterations                05/20/26 15:07:21

 BEGIN implicit statics  step     55 t= 5.5000E+00             05/20/26 15:07:21
      55 t 5.4000E+00 dt 1.00E-01 begin thermal step           05/20/26 15:07:21
 Iteration:   1     *|du|/|u| =  5.7822657E-03     *Ei/E0 =  6.7189512E-01
 Iteration:   2     *|du|/|u| =  1.1138544E-04     *Ei/E0 =  5.2753033E-07
 Equilibrium established after     2 iterations                05/20/26 15:07:22

 BEGIN implicit statics  step     56 t= 5.6000E+00             05/20/26 15:07:22
      56 t 5.5000E+00 dt 1.00E-01 begin thermal step           05/20/26 15:07:22
 Iteration:   1     *|du|/|u| =  5.6353518E-03     *Ei/E0 =  6.3851514E-01
 Iteration:   2     *|du|/|u| =  8.8438529E-05     *Ei/E0 =  1.1500114E-06
 Equilibrium established after     2 iterations                05/20/26 15:07:23
     228 t 5.6000E+00 dt 1.00E-01 write d3plot file            05/20/26 15:07:23

 BEGIN implicit statics  step     57 t= 5.7000E+00             05/20/26 15:07:23
      57 t 5.6000E+00 dt 1.00E-01 begin thermal step           05/20/26 15:07:23
 Iteration:   1     *|du|/|u| =  5.5295882E-03     *Ei/E0 =  6.0722222E-01
 Iteration:   2     *|du|/|u| =  3.3941027E-05     *Ei/E0 =  9.6497358E-06
 Equilibrium established after     2 iterations                05/20/26 15:07:26

 BEGIN implicit statics  step     58 t= 5.8000E+00             05/20/26 15:07:26
      58 t 5.7000E+00 dt 1.00E-01 begin thermal step           05/20/26 15:07:26
 Iteration:   1     *|du|/|u| =  5.4214198E-03     *Ei/E0 =  5.7830346E-01
 Iteration:   2     *|du|/|u| =  5.7127661E-05     *Ei/E0 =  2.8411714E-06
 Equilibrium established after     2 iterations                05/20/26 15:07:27

 BEGIN implicit statics  step     59 t= 5.9000E+00             05/20/26 15:07:27
      59 t 5.8000E+00 dt 1.00E-01 begin thermal step           05/20/26 15:07:27
 Iteration:   1     *|du|/|u| =  5.2957199E-03     *Ei/E0 =  5.5174675E-01
 Iteration:   2     *|du|/|u| =  4.3183803E-05     *Ei/E0 =  2.7209821E-06
 Equilibrium established after     2 iterations                05/20/26 15:07:28

 BEGIN implicit statics  step     60 t= 6.0000E+00             05/20/26 15:07:28
      60 t 5.9000E+00 dt 1.00E-01 begin thermal step           05/20/26 15:07:28
 Iteration:   1     *|du|/|u| =  5.3774722E-03     *Ei/E0 =  5.8649326E-01
 Iteration:   2     *|du|/|u| =  6.1380637E-05     *Ei/E0 =  2.5457337E-06
 Equilibrium established after     2 iterations                05/20/26 15:07:30

 BEGIN implicit statics  step     61 t= 6.1000E+00             05/20/26 15:07:30
      61 t 6.0000E+00 dt 1.00E-01 begin thermal step           05/20/26 15:07:30
 Iteration:   1     *|du|/|u| =  5.7245021E-03     *Ei/E0 =  7.1149491E-01
 Iteration:   2     *|du|/|u| =  4.4250223E-05     *Ei/E0 =  8.6251606E-06
 Equilibrium established after     2 iterations                05/20/26 15:07:31
     248 t 6.1000E+00 dt 1.00E-01 write d3plot file            05/20/26 15:07:31

 BEGIN implicit statics  step     62 t= 6.2000E+00             05/20/26 15:07:31
      62 t 6.1000E+00 dt 1.00E-01 begin thermal step           05/20/26 15:07:31
 Iteration:   1     *|du|/|u| =  5.6146744E-03     *Ei/E0 =  6.7476628E-01
 Iteration:   2     *|du|/|u| =  1.2711944E-04     *Ei/E0 =  2.1507896E-05
 Equilibrium established after     2 iterations                05/20/26 15:07:33

 BEGIN implicit statics  step     63 t= 6.3000E+00             05/20/26 15:07:33
      63 t 6.2000E+00 dt 1.00E-01 begin thermal step           05/20/26 15:07:33
 Iteration:   1     *|du|/|u| =  5.4830220E-03     *Ei/E0 =  6.4029634E-01
 Iteration:   2     *|du|/|u| =  8.1480733E-05     *Ei/E0 =  1.9920518E-05
 Equilibrium established after     2 iterations                05/20/26 15:07:34

 BEGIN implicit statics  step     64 t= 6.4000E+00             05/20/26 15:07:34
      64 t 6.3000E+00 dt 1.00E-01 begin thermal step           05/20/26 15:07:34
 Iteration:   1     *|du|/|u| =  5.3484031E-03     *Ei/E0 =  6.0875497E-01
 Iteration:   2     *|du|/|u| =  2.1829134E-04     *Ei/E0 =  9.9026182E-05
 Equilibrium established after     2 iterations                05/20/26 15:07:35

 BEGIN implicit statics  step     65 t= 6.5000E+00             05/20/26 15:07:35
      65 t 6.4000E+00 dt 1.00E-01 begin thermal step           05/20/26 15:07:35
 Iteration:   1     *|du|/|u| =  5.1817196E-03     *Ei/E0 =  5.8082526E-01
 Iteration:   2     *|du|/|u| =  5.0070592E-05     *Ei/E0 =  3.2872982E-05
 Equilibrium established after     2 iterations                05/20/26 15:07:37

 BEGIN implicit statics  step     66 t= 6.6000E+00             05/20/26 15:07:38
      66 t 6.5000E+00 dt 1.00E-01 begin thermal step           05/20/26 15:07:38
 Iteration:   1     *|du|/|u| =  5.0929627E-03     *Ei/E0 =  5.5356805E-01
 Iteration:   2     *|du|/|u| =  6.1617982E-05     *Ei/E0 =  2.6259641E-05
 Equilibrium established after     2 iterations                05/20/26 15:07:39
     268 t 6.6000E+00 dt 1.00E-01 write d3plot file            05/20/26 15:07:39

 BEGIN implicit statics  step     67 t= 6.7000E+00             05/20/26 15:07:39
      67 t 6.6000E+00 dt 1.00E-01 begin thermal step           05/20/26 15:07:39
 Iteration:   1     *|du|/|u| =  5.3366108E-03     *Ei/E0 =  6.5150803E-01
 Iteration:   2     *|du|/|u| =  4.7651668E-05     *Ei/E0 =  2.1242165E-05
 Equilibrium established after     2 iterations                05/20/26 15:07:40

 BEGIN implicit statics  step     68 t= 6.8000E+00             05/20/26 15:07:40
      68 t 6.7000E+00 dt 1.00E-01 begin thermal step           05/20/26 15:07:40
 Iteration:   1     *|du|/|u| =  5.4551314E-03     *Ei/E0 =  7.0770284E-01
 Iteration:   2     *|du|/|u| =  2.8768826E-05     *Ei/E0 =  3.4328718E-05
 Equilibrium established after     2 iterations                05/20/26 15:07:41

 BEGIN implicit statics  step     69 t= 6.9000E+00             05/20/26 15:07:41
      69 t 6.8000E+00 dt 1.00E-01 begin thermal step           05/20/26 15:07:41
 Iteration:   1     *|du|/|u| =  5.3120611E-03     *Ei/E0 =  6.7174117E-01
 Iteration:   2     *|du|/|u| =  1.8094509E-04     *Ei/E0 =  2.8222384E-04
 Equilibrium established after     2 iterations                05/20/26 15:07:42

 BEGIN implicit statics  step     70 t= 7.0000E+00             05/20/26 15:07:42
      70 t 6.9000E+00 dt 1.00E-01 begin thermal step           05/20/26 15:07:42
 Iteration:   1     *|du|/|u| =  5.1412645E-03     *Ei/E0 =  6.3983795E-01
 Iteration:   2     *|du|/|u| =  9.8848832E-05     *Ei/E0 =  5.2128985E-04
 Equilibrium established after     2 iterations                05/20/26 15:07:44

 BEGIN implicit statics  step     71 t= 7.1000E+00             05/20/26 15:07:44
      71 t 7.0000E+00 dt 1.00E-01 begin thermal step           05/20/26 15:07:44
 Iteration:   1     *|du|/|u| =  4.9593164E-03     *Ei/E0 =  6.1107571E-01
 Iteration:   2     *|du|/|u| =  5.4490854E-05     *Ei/E0 =  4.2113196E-04
 Equilibrium established after     2 iterations                05/20/26 15:07:44
     288 t 7.1000E+00 dt 1.00E-01 write d3plot file            05/20/26 15:07:44

 BEGIN implicit statics  step     72 t= 7.2000E+00             05/20/26 15:07:44
      72 t 7.1000E+00 dt 1.00E-01 begin thermal step           05/20/26 15:07:44
 Iteration:   1     *|du|/|u| =  4.8879755E-03     *Ei/E0 =  5.8213697E-01
 Iteration:   2     *|du|/|u| =  4.9894810E-05     *Ei/E0 =  3.6782087E-04
 Equilibrium established after     2 iterations                05/20/26 15:07:46

 BEGIN implicit statics  step     73 t= 7.3000E+00             05/20/26 15:07:46
      73 t 7.2000E+00 dt 1.00E-01 begin thermal step           05/20/26 15:07:46
 Iteration:   1     *|du|/|u| =  4.8032018E-03     *Ei/E0 =  5.5569833E-01
 Iteration:   2     *|du|/|u| =  4.6781660E-05     *Ei/E0 =  3.2300219E-04
 Equilibrium established after     2 iterations                05/20/26 15:07:48

 BEGIN implicit statics  step     74 t= 7.4000E+00             05/20/26 15:07:48
      74 t 7.3000E+00 dt 1.00E-01 begin thermal step           05/20/26 15:07:48
 Iteration:   1     *|du|/|u| =  4.7231882E-03     *Ei/E0 =  5.3119692E-01
 Iteration:   2     *|du|/|u| =  4.7339622E-05     *Ei/E0 =  2.8788301E-04
 Equilibrium established after     2 iterations                05/20/26 15:07:48

 BEGIN implicit statics  step     75 t= 7.5000E+00             05/20/26 15:07:49
      75 t 7.4000E+00 dt 1.00E-01 begin thermal step           05/20/26 15:07:49
 Iteration:   1     *|du|/|u| =  4.6506485E-03     *Ei/E0 =  5.0864143E-01
 Iteration:   2     *|du|/|u| =  1.4329363E-04     *Ei/E0 =  3.1554537E-04
 Equilibrium established after     2 iterations                05/20/26 15:07:50

 BEGIN implicit statics  step     76 t= 7.6000E+00             05/20/26 15:07:50
      76 t 7.5000E+00 dt 1.00E-01 begin thermal step           05/20/26 15:07:50
 Iteration:   1     *|du|/|u| =  4.6966383E-03     *Ei/E0 =  5.8650088E-01
 Iteration:   2     *|du|/|u| =  8.7196402E-05     *Ei/E0 =  3.4761949E-04
 Equilibrium established after     2 iterations                05/20/26 15:07:51
     308 t 7.6000E+00 dt 1.00E-01 write d3plot file            05/20/26 15:07:51

 BEGIN implicit statics  step     77 t= 7.7000E+00             05/20/26 15:07:51
      77 t 7.6000E+00 dt 1.00E-01 begin thermal step           05/20/26 15:07:51
 Iteration:   1     *|du|/|u| =  4.8285100E-03     *Ei/E0 =  6.6473941E-01
 Iteration:   2     *|du|/|u| =  2.8533637E-05     *Ei/E0 =  4.1845542E-04
 Equilibrium established after     2 iterations                05/20/26 15:07:52

 BEGIN implicit statics  step     78 t= 7.8000E+00             05/20/26 15:07:52
      78 t 7.7000E+00 dt 1.00E-01 begin thermal step           05/20/26 15:07:52
 Iteration:   1     *|du|/|u| =  4.7430668E-03     *Ei/E0 =  6.3179558E-01
 Iteration:   2     *|du|/|u| =  3.5467650E-05     *Ei/E0 =  3.9814439E-04
 Equilibrium established after     2 iterations                05/20/26 15:07:53

 BEGIN implicit statics  step     79 t= 7.9000E+00             05/20/26 15:07:53
      79 t 7.8000E+00 dt 1.00E-01 begin thermal step           05/20/26 15:07:53
 Iteration:   1     *|du|/|u| =  4.5672211E-03     *Ei/E0 =  6.0371793E-01
 Iteration:   2     *|du|/|u| =  3.3380381E-05     *Ei/E0 =  4.4737637E-04
 Equilibrium established after     2 iterations                05/20/26 15:07:54

 BEGIN implicit statics  step     80 t= 8.0000E+00             05/20/26 15:07:54
      80 t 7.9000E+00 dt 1.00E-01 begin thermal step           05/20/26 15:07:54
 Iteration:   1     *|du|/|u| =  4.4983726E-03     *Ei/E0 =  5.7580431E-01
 Iteration:   2     *|du|/|u| =  5.0085886E-05     *Ei/E0 =  4.2904461E-04
 Equilibrium established after     2 iterations                05/20/26 15:07:55

 BEGIN implicit statics  step     81 t= 8.1000E+00             05/20/26 15:07:55
      81 t 8.0000E+00 dt 1.00E-01 begin thermal step           05/20/26 15:07:55
 Iteration:   1     *|du|/|u| =  4.3708295E-03     *Ei/E0 =  5.5055446E-01
 Iteration:   2     *|du|/|u| =  3.6907274E-05     *Ei/E0 =  3.6863575E-04
 Equilibrium established after     2 iterations                05/20/26 15:07:56
     328 t 8.1000E+00 dt 1.00E-01 write d3plot file            05/20/26 15:07:56

 BEGIN implicit statics  step     82 t= 8.2000E+00             05/20/26 15:07:56
      82 t 8.1000E+00 dt 1.00E-01 begin thermal step           05/20/26 15:07:56
 Iteration:   1     *|du|/|u| =  4.2967420E-03     *Ei/E0 =  5.2678787E-01
 Iteration:   2     *|du|/|u| =  8.2758248E-05     *Ei/E0 =  4.7380157E-04
 Equilibrium established after     2 iterations                05/20/26 15:07:58

 BEGIN implicit statics  step     83 t= 8.3000E+00             05/20/26 15:07:58
      83 t 8.2000E+00 dt 1.00E-01 begin thermal step           05/20/26 15:07:58
 Iteration:   1     *|du|/|u| =  4.5059448E-03     *Ei/E0 =  6.6937650E-01
 Iteration:   2     *|du|/|u| =  5.8606497E-05     *Ei/E0 =  6.2472219E-04
 Equilibrium established after     2 iterations                05/20/26 15:07:59

 BEGIN implicit statics  step     84 t= 8.4000E+00             05/20/26 15:07:59
      84 t 8.3000E+00 dt 1.00E-01 begin thermal step           05/20/26 15:07:59
 Iteration:   1     *|du|/|u| =  4.5304413E-03     *Ei/E0 =  6.7967088E-01
 Iteration:   2     *|du|/|u| =  5.6973682E-05     *Ei/E0 =  6.2464361E-04
 Equilibrium established after     2 iterations                05/20/26 15:08:00

 BEGIN implicit statics  step     85 t= 8.5000E+00             05/20/26 15:08:00
      85 t 8.4000E+00 dt 1.00E-01 begin thermal step           05/20/26 15:08:00
 Iteration:   1     *|du|/|u| =  4.4416725E-03     *Ei/E0 =  6.4653180E-01
 Iteration:   2     *|du|/|u| =  5.5056792E-05     *Ei/E0 =  5.6616369E-04
 Equilibrium established after     2 iterations                05/20/26 15:08:01

 BEGIN implicit statics  step     86 t= 8.6000E+00             05/20/26 15:08:01
      86 t 8.5000E+00 dt 1.00E-01 begin thermal step           05/20/26 15:08:01
 Iteration:   1     *|du|/|u| =  4.3543300E-03     *Ei/E0 =  6.1587523E-01
 Iteration:   2     *|du|/|u| =  1.5405335E-04     *Ei/E0 =  7.0862148E-04
 Equilibrium established after     2 iterations                05/20/26 15:08:03
     348 t 8.6000E+00 dt 1.00E-01 write d3plot file            05/20/26 15:08:03

 BEGIN implicit statics  step     87 t= 8.7000E+00             05/20/26 15:08:03
      87 t 8.6000E+00 dt 1.00E-01 begin thermal step           05/20/26 15:08:03
 Iteration:   1     *|du|/|u| =  4.1848214E-03     *Ei/E0 =  5.8976671E-01
 Iteration:   2     *|du|/|u| =  1.0040314E-04     *Ei/E0 =  7.9605175E-04
 Equilibrium established after     2 iterations                05/20/26 15:08:03

 BEGIN implicit statics  step     88 t= 8.8000E+00             05/20/26 15:08:03
      88 t 8.7000E+00 dt 1.00E-01 begin thermal step           05/20/26 15:08:03
 Iteration:   1     *|du|/|u| =  4.0551681E-03     *Ei/E0 =  5.6573748E-01
 Iteration:   2     *|du|/|u| =  8.4605836E-05     *Ei/E0 =  5.5955963E-04
 Equilibrium established after     2 iterations                05/20/26 15:08:04

 BEGIN implicit statics  step     89 t= 8.9000E+00             05/20/26 15:08:04
      89 t 8.8000E+00 dt 1.00E-01 begin thermal step           05/20/26 15:08:04
 Iteration:   1     *|du|/|u| =  3.9645584E-03     *Ei/E0 =  5.4205658E-01
 Iteration:   2     *|du|/|u| =  8.8260032E-05     *Ei/E0 =  5.2860167E-04
 Equilibrium established after     2 iterations                05/20/26 15:08:05

 BEGIN implicit statics  step     90 t= 9.0000E+00             05/20/26 15:08:05
      90 t 8.9000E+00 dt 1.00E-01 begin thermal step           05/20/26 15:08:05
 Iteration:   1     *|du|/|u| =  3.8473353E-03     *Ei/E0 =  5.2072005E-01
 Iteration:   2     *|du|/|u| =  8.4869107E-05     *Ei/E0 =  4.8304616E-04
 Equilibrium established after     2 iterations                05/20/26 15:08:06

 BEGIN implicit statics  step     91 t= 9.1000E+00             05/20/26 15:08:06
      91 t 9.0000E+00 dt 1.00E-01 begin thermal step           05/20/26 15:08:06
 Iteration:   1     *|du|/|u| =  3.7373510E-03     *Ei/E0 =  5.0072642E-01
 Iteration:   2     *|du|/|u| =  9.4636647E-05     *Ei/E0 =  4.9964127E-04
 Equilibrium established after     2 iterations                05/20/26 15:08:08
     368 t 9.1000E+00 dt 1.00E-01 write d3plot file            05/20/26 15:08:09

 BEGIN implicit statics  step     92 t= 9.2000E+00             05/20/26 15:08:09
      92 t 9.1000E+00 dt 1.00E-01 begin thermal step           05/20/26 15:08:09
 Iteration:   1     *|du|/|u| =  3.9794432E-03     *Ei/E0 =  6.1590635E-01
 Iteration:   2     *|du|/|u| =  9.8593204E-05     *Ei/E0 =  6.3411733E-04
 Equilibrium established after     2 iterations                05/20/26 15:08:10

 BEGIN implicit statics  step     93 t= 9.3000E+00             05/20/26 15:08:10
      93 t 9.2000E+00 dt 1.00E-01 begin thermal step           05/20/26 15:08:10
 Iteration:   1     *|du|/|u| =  4.0426772E-03     *Ei/E0 =  6.5007164E-01
 Iteration:   2     *|du|/|u| =  1.1929505E-04     *Ei/E0 =  7.8655086E-04
 Equilibrium established after     2 iterations                05/20/26 15:08:11

 BEGIN implicit statics  step     94 t= 9.4000E+00             05/20/26 15:08:11
      94 t 9.3000E+00 dt 1.00E-01 begin thermal step           05/20/26 15:08:11
 Iteration:   1     *|du|/|u| =  3.9828918E-03     *Ei/E0 =  6.1989444E-01
 Iteration:   2     *|du|/|u| =  9.7956366E-05     *Ei/E0 =  7.5269168E-04
 Equilibrium established after     2 iterations                05/20/26 15:08:12

 BEGIN implicit statics  step     95 t= 9.5000E+00             05/20/26 15:08:12
      95 t 9.4000E+00 dt 1.00E-01 begin thermal step           05/20/26 15:08:12
 Iteration:   1     *|du|/|u| =  3.8929391E-03     *Ei/E0 =  5.9167333E-01
 Iteration:   2     *|du|/|u| =  1.6075264E-04     *Ei/E0 =  1.4704064E-03
 Equilibrium established after     2 iterations                05/20/26 15:08:13

 BEGIN implicit statics  step     96 t= 9.6000E+00             05/20/26 15:08:13
      96 t 9.5000E+00 dt 1.00E-01 begin thermal step           05/20/26 15:08:13
 Iteration:   1     *|du|/|u| =  3.6715307E-03     *Ei/E0 =  5.7063352E-01
 Iteration:   2     *|du|/|u| =  1.3713300E-04     *Ei/E0 =  1.1068612E-03
 Equilibrium established after     2 iterations                05/20/26 15:08:13
     388 t 9.6000E+00 dt 1.00E-01 write d3plot file            05/20/26 15:08:13

 BEGIN implicit statics  step     97 t= 9.7000E+00             05/20/26 15:08:13
      97 t 9.6000E+00 dt 1.00E-01 begin thermal step           05/20/26 15:08:13
 Iteration:   1     *|du|/|u| =  3.6303560E-03     *Ei/E0 =  5.4528014E-01
 Iteration:   2     *|du|/|u| =  1.2186278E-04     *Ei/E0 =  8.8389830E-04
 Equilibrium established after     2 iterations                05/20/26 15:08:15

 BEGIN implicit statics  step     98 t= 9.8000E+00             05/20/26 15:08:15
      98 t 9.7000E+00 dt 1.00E-01 begin thermal step           05/20/26 15:08:15
 Iteration:   1     *|du|/|u| =  3.5758917E-03     *Ei/E0 =  5.2288170E-01
 Iteration:   2     *|du|/|u| =  1.0703783E-04     *Ei/E0 =  7.1632997E-04
 Equilibrium established after     2 iterations                05/20/26 15:08:16

 BEGIN implicit statics  step     99 t= 9.9000E+00             05/20/26 15:08:16
      99 t 9.8000E+00 dt 1.00E-01 begin thermal step           05/20/26 15:08:16
 Iteration:   1     *|du|/|u| =  3.8736093E-03     *Ei/E0 =  7.0609296E-01
 Iteration:   2     *|du|/|u| =  1.3094780E-04     *Ei/E0 =  1.1047328E-03
 Equilibrium established after     2 iterations                05/20/26 15:08:17

 BEGIN implicit statics  step    100 t= 1.0000E+01             05/20/26 15:08:17
     100 t 9.9000E+00 dt 1.00E-01 begin thermal step           05/20/26 15:08:17
 Iteration:   1     *|du|/|u| =  3.7718542E-03     *Ei/E0 =  6.7268768E-01
 Iteration:   2     *|du|/|u| =  1.4388214E-04     *Ei/E0 =  1.4920209E-03
 Equilibrium established after     2 iterations                05/20/26 15:08:18

 BEGIN implicit statics  step    101 t= 1.0100E+01             05/20/26 15:08:19
     101 t 1.0000E+01 dt 1.00E-01 begin thermal step           05/20/26 15:08:19
 Iteration:   1     *|du|/|u| =  3.6451150E-03     *Ei/E0 =  6.4349496E-01
 Iteration:   2     *|du|/|u| =  1.3477494E-04     *Ei/E0 =  1.0686755E-03
 Equilibrium established after     2 iterations                05/20/26 15:08:20
     408 t 1.0100E+01 dt 1.00E-01 write d3plot file            05/20/26 15:08:21

 BEGIN implicit statics  step    102 t= 1.0200E+01             05/20/26 15:08:21
     102 t 1.0100E+01 dt 1.00E-01 begin thermal step           05/20/26 15:08:21
 Iteration:   1     *|du|/|u| =  3.5936247E-03     *Ei/E0 =  6.1277776E-01
 Iteration:   2     *|du|/|u| =  1.2526472E-04     *Ei/E0 =  9.1738370E-04
 Equilibrium established after     2 iterations                05/20/26 15:08:22

 BEGIN implicit statics  step    103 t= 1.0300E+01             05/20/26 15:08:22
     103 t 1.0200E+01 dt 1.00E-01 begin thermal step           05/20/26 15:08:22
 Iteration:   1     *|du|/|u| =  3.4831959E-03     *Ei/E0 =  5.8818635E-01
 Iteration:   2     *|du|/|u| =  2.2218606E-04     *Ei/E0 =  1.0665961E-03
 Equilibrium established after     2 iterations                05/20/26 15:08:23

 BEGIN implicit statics  step    104 t= 1.0400E+01             05/20/26 15:08:23
     104 t 1.0300E+01 dt 1.00E-01 begin thermal step           05/20/26 15:08:23
 Iteration:   1     *|du|/|u| =  3.3295451E-03     *Ei/E0 =  5.6602128E-01
 Iteration:   2     *|du|/|u| =  1.4408772E-04     *Ei/E0 =  9.5666540E-04
 Equilibrium established after     2 iterations                05/20/26 15:08:27

 BEGIN implicit statics  step    105 t= 1.0500E+01             05/20/26 15:08:27
     105 t 1.0400E+01 dt 1.00E-01 begin thermal step           05/20/26 15:08:27
 Iteration:   1     *|du|/|u| =  3.2487587E-03     *Ei/E0 =  5.4386981E-01
 Iteration:   2     *|du|/|u| =  1.4147969E-04     *Ei/E0 =  9.1695805E-04
 Equilibrium established after     2 iterations                05/20/26 15:08:28

 BEGIN implicit statics  step    106 t= 1.0600E+01             05/20/26 15:08:28
     106 t 1.0500E+01 dt 1.00E-01 begin thermal step           05/20/26 15:08:28
 Iteration:   1     *|du|/|u| =  3.1922853E-03     *Ei/E0 =  5.2174566E-01
 Iteration:   2     *|du|/|u| =  2.4072917E-04     *Ei/E0 =  9.4400830E-04
 Equilibrium established after     2 iterations                05/20/26 15:08:29
     428 t 1.0600E+01 dt 1.00E-01 write d3plot file            05/20/26 15:08:29

 BEGIN implicit statics  step    107 t= 1.0700E+01             05/20/26 15:08:29
     107 t 1.0600E+01 dt 1.00E-01 begin thermal step           05/20/26 15:08:29
 Iteration:   1     *|du|/|u| =  3.1015654E-03     *Ei/E0 =  5.0229115E-01
 Iteration:   2     *|du|/|u| =  1.2213383E-04     *Ei/E0 =  7.2235683E-04
 Equilibrium established after     2 iterations                05/20/26 15:08:32

 BEGIN implicit statics  step    108 t= 1.0800E+01             05/20/26 15:08:32
     108 t 1.0700E+01 dt 1.00E-01 begin thermal step           05/20/26 15:08:32
 Iteration:   1     *|du|/|u| =  3.4218436E-03     *Ei/E0 =  6.5636390E-01
 Iteration:   2     *|du|/|u| =  1.1816861E-04     *Ei/E0 =  9.1308980E-04
 Equilibrium established after     2 iterations                05/20/26 15:08:35

 BEGIN implicit statics  step    109 t= 1.0900E+01             05/20/26 15:08:36
     109 t 1.0800E+01 dt 1.00E-01 begin thermal step           05/20/26 15:08:36
 Iteration:   1     *|du|/|u| =  3.4079983E-03     *Ei/E0 =  6.4902951E-01
 Iteration:   2     *|du|/|u| =  1.3330102E-04     *Ei/E0 =  1.5397068E-03
 Equilibrium established after     2 iterations                05/20/26 15:08:37

 BEGIN implicit statics  step    110 t= 1.1000E+01             05/20/26 15:08:37
     110 t 1.0900E+01 dt 1.00E-01 begin thermal step           05/20/26 15:08:37
 Iteration:   1     *|du|/|u| =  3.2760408E-03     *Ei/E0 =  6.2188064E-01
 Iteration:   2     *|du|/|u| =  1.4193720E-04     *Ei/E0 =  1.7874468E-03
 Equilibrium established after     2 iterations                05/20/26 15:08:38

 BEGIN implicit statics  step    111 t= 1.1100E+01             05/20/26 15:08:38
     111 t 1.1000E+01 dt 1.00E-01 begin thermal step           05/20/26 15:08:38
 Iteration:   1     *|du|/|u| =  3.2040717E-03     *Ei/E0 =  5.9424177E-01
 Iteration:   2     *|du|/|u| =  1.2632380E-04     *Ei/E0 =  1.6316072E-03
 Equilibrium established after     2 iterations                05/20/26 15:08:39
     448 t 1.1100E+01 dt 1.00E-01 write d3plot file            05/20/26 15:08:39

 BEGIN implicit statics  step    112 t= 1.1200E+01             05/20/26 15:08:39
     112 t 1.1100E+01 dt 1.00E-01 begin thermal step           05/20/26 15:08:39
 Iteration:   1     *|du|/|u| =  3.2254193E-03     *Ei/E0 =  5.6972235E-01
 Iteration:   2     *|du|/|u| =  6.4750622E-04     *Ei/E0 =  1.7959350E-03
 Equilibrium established after     2 iterations                05/20/26 15:08:41

 BEGIN implicit statics  step    113 t= 1.1300E+01             05/20/26 15:08:41
     113 t 1.1200E+01 dt 1.00E-01 begin thermal step           05/20/26 15:08:41
 Iteration:   1     *|du|/|u| =  3.0175624E-03     *Ei/E0 =  5.4849649E-01
 Iteration:   2     *|du|/|u| =  1.2310908E-04     *Ei/E0 =  1.4927212E-03
 Equilibrium established after     2 iterations                05/20/26 15:08:43

 BEGIN implicit statics  step    114 t= 1.1400E+01             05/20/26 15:08:44
     114 t 1.1300E+01 dt 1.00E-01 begin thermal step           05/20/26 15:08:44
 Iteration:   1     *|du|/|u| =  3.0183921E-03     *Ei/E0 =  5.6564299E-01
 Iteration:   2     *|du|/|u| =  1.1453364E-04     *Ei/E0 =  1.2760549E-03
 Equilibrium established after     2 iterations                05/20/26 15:08:44

 BEGIN implicit statics  step    115 t= 1.1500E+01             05/20/26 15:08:44
     115 t 1.1400E+01 dt 1.00E-01 begin thermal step           05/20/26 15:08:44
 Iteration:   1     *|du|/|u| =  3.2452431E-03     *Ei/E0 =  7.0606746E-01
 Iteration:   2     *|du|/|u| =  1.1385155E-04     *Ei/E0 =  1.5337170E-03
 Equilibrium established after     2 iterations                05/20/26 15:08:46

 BEGIN implicit statics  step    116 t= 1.1600E+01             05/20/26 15:08:46
     116 t 1.1500E+01 dt 1.00E-01 begin thermal step           05/20/26 15:08:46
 Iteration:   1     *|du|/|u| =  3.1823676E-03     *Ei/E0 =  6.7216975E-01
 Iteration:   2     *|du|/|u| =  1.1892558E-04     *Ei/E0 =  1.4323363E-03
 Equilibrium established after     2 iterations                05/20/26 15:08:50
     468 t 1.1600E+01 dt 1.00E-01 write d3plot file            05/20/26 15:08:50

 BEGIN implicit statics  step    117 t= 1.1700E+01             05/20/26 15:08:50
     117 t 1.1600E+01 dt 1.00E-01 begin thermal step           05/20/26 15:08:50
 Iteration:   1     *|du|/|u| =  3.0419646E-03     *Ei/E0 =  6.4484975E-01
 Iteration:   2     *|du|/|u| =  1.1890862E-04     *Ei/E0 =  1.3615693E-03
 Equilibrium established after     2 iterations                05/20/26 15:08:52

 BEGIN implicit statics  step    118 t= 1.1800E+01             05/20/26 15:08:52
     118 t 1.1700E+01 dt 1.00E-01 begin thermal step           05/20/26 15:08:52
 Iteration:   1     *|du|/|u| =  2.9262388E-03     *Ei/E0 =  6.1986283E-01
 Iteration:   2     *|du|/|u| =  1.2981174E-04     *Ei/E0 =  1.4665948E-03
 Equilibrium established after     2 iterations                05/20/26 15:08:53

 BEGIN implicit statics  step    119 t= 1.1900E+01             05/20/26 15:08:54
     119 t 1.1800E+01 dt 1.00E-01 begin thermal step           05/20/26 15:08:54
 Iteration:   1     *|du|/|u| =  2.8732255E-03     *Ei/E0 =  5.9221761E-01
 Iteration:   2     *|du|/|u| =  1.4131449E-04     *Ei/E0 =  1.5280915E-03
 Equilibrium established after     2 iterations                05/20/26 15:08:55

 BEGIN implicit statics  step    120 t= 1.2000E+01             05/20/26 15:08:55
     120 t 1.1900E+01 dt 1.00E-01 begin thermal step           05/20/26 15:08:55
 Iteration:   1     *|du|/|u| =  2.7632506E-03     *Ei/E0 =  5.7057063E-01
 Iteration:   2     *|du|/|u| =  1.9158410E-04     *Ei/E0 =  1.2876033E-03
 Equilibrium established after     2 iterations                05/20/26 15:08:58

 BEGIN implicit statics  step    121 t= 1.2100E+01             05/20/26 15:08:59
     121 t 1.2000E+01 dt 1.00E-01 begin thermal step           05/20/26 15:08:59
 Iteration:   1     *|du|/|u| =  2.6928482E-03     *Ei/E0 =  5.4764888E-01
 Iteration:   2     *|du|/|u| =  1.3067427E-04     *Ei/E0 =  1.1212457E-03
 Equilibrium established after     2 iterations                05/20/26 15:09:02
     488 t 1.2100E+01 dt 1.00E-01 write d3plot file            05/20/26 15:09:02

 BEGIN implicit statics  step    122 t= 1.2200E+01             05/20/26 15:09:02
     122 t 1.2100E+01 dt 1.00E-01 begin thermal step           05/20/26 15:09:02
 Iteration:   1     *|du|/|u| =  2.6463091E-03     *Ei/E0 =  5.2606838E-01
 Iteration:   2     *|du|/|u| =  1.2245165E-04     *Ei/E0 =  9.9395994E-04
 Equilibrium established after     2 iterations                05/20/26 15:09:03

 BEGIN implicit statics  step    123 t= 1.2300E+01             05/20/26 15:09:03
     123 t 1.2200E+01 dt 1.00E-01 begin thermal step           05/20/26 15:09:03
 Iteration:   1     *|du|/|u| =  2.6451241E-03     *Ei/E0 =  5.2237273E-01
 Iteration:   2     *|du|/|u| =  1.6686076E-04     *Ei/E0 =  1.2149596E-03
 Equilibrium established after     2 iterations                05/20/26 15:09:05

 BEGIN implicit statics  step    124 t= 1.2400E+01             05/20/26 15:09:05
     124 t 1.2300E+01 dt 1.00E-01 begin thermal step           05/20/26 15:09:05
 Iteration:   1     *|du|/|u| =  2.8042785E-03     *Ei/E0 =  6.8610724E-01
 Iteration:   2     *|du|/|u| =  1.5397823E-04     *Ei/E0 =  1.6886203E-03
 Equilibrium established after     2 iterations                05/20/26 15:09:08

 BEGIN implicit statics  step    125 t= 1.2500E+01             05/20/26 15:09:08
     125 t 1.2400E+01 dt 1.00E-01 begin thermal step           05/20/26 15:09:08
 Iteration:   1     *|du|/|u| =  2.8444583E-03     *Ei/E0 =  6.5156396E-01
 Iteration:   2     *|du|/|u| =  1.4443136E-04     *Ei/E0 =  1.8939167E-03
 Equilibrium established after     2 iterations                05/20/26 15:09:10

 BEGIN implicit statics  step    126 t= 1.2600E+01             05/20/26 15:09:10
     126 t 1.2500E+01 dt 1.00E-01 begin thermal step           05/20/26 15:09:10
 Iteration:   1     *|du|/|u| =  2.7585800E-03     *Ei/E0 =  6.2488002E-01
 Iteration:   2     *|du|/|u| =  3.7990364E-04     *Ei/E0 =  2.4061717E-03
 Equilibrium established after     2 iterations                05/20/26 15:09:12
     508 t 1.2600E+01 dt 1.00E-01 write d3plot file            05/20/26 15:09:12

 BEGIN implicit statics  step    127 t= 1.2700E+01             05/20/26 15:09:12
     127 t 1.2600E+01 dt 1.00E-01 begin thermal step           05/20/26 15:09:12
 Iteration:   1     *|du|/|u| =  2.6128685E-03     *Ei/E0 =  6.0002833E-01
 Iteration:   2     *|du|/|u| =  1.8015155E-04     *Ei/E0 =  2.3801963E-03
 Equilibrium established after     2 iterations                05/20/26 15:09:14

 BEGIN implicit statics  step    128 t= 1.2800E+01             05/20/26 15:09:14
     128 t 1.2700E+01 dt 1.00E-01 begin thermal step           05/20/26 15:09:14
 Iteration:   1     *|du|/|u| =  2.5508705E-03     *Ei/E0 =  5.7596900E-01
 Iteration:   2     *|du|/|u| =  1.6968561E-04     *Ei/E0 =  1.8462403E-03
 Equilibrium established after     2 iterations                05/20/26 15:09:16

 BEGIN implicit statics  step    129 t= 1.2900E+01             05/20/26 15:09:16
     129 t 1.2800E+01 dt 1.00E-01 begin thermal step           05/20/26 15:09:16
 Iteration:   1     *|du|/|u| =  2.5087134E-03     *Ei/E0 =  5.5238700E-01
 Iteration:   2     *|du|/|u| =  1.5325160E-04     *Ei/E0 =  1.5133433E-03
 Equilibrium established after     2 iterations                05/20/26 15:09:17

 BEGIN implicit statics  step    130 t= 1.3000E+01             05/20/26 15:09:17
     130 t 1.2900E+01 dt 1.00E-01 begin thermal step           05/20/26 15:09:17
 Iteration:   1     *|du|/|u| =  2.5947352E-03     *Ei/E0 =  6.0741081E-01
 Iteration:   2     *|du|/|u| =  1.7766053E-04     *Ei/E0 =  1.5871257E-03
 Equilibrium established after     2 iterations                05/20/26 15:09:19

 BEGIN implicit statics  step    131 t= 1.3100E+01             05/20/26 15:09:19
     131 t 1.3000E+01 dt 1.00E-01 begin thermal step           05/20/26 15:09:19
 Iteration:   1     *|du|/|u| =  2.6395490E-03     *Ei/E0 =  7.1079183E-01
 Iteration:   2     *|du|/|u| =  1.6959457E-04     *Ei/E0 =  1.7870875E-03
 Equilibrium established after     2 iterations                05/20/26 15:09:22
     528 t 1.3100E+01 dt 1.00E-01 write d3plot file            05/20/26 15:09:22

 BEGIN implicit statics  step    132 t= 1.3200E+01             05/20/26 15:09:22
     132 t 1.3100E+01 dt 1.00E-01 begin thermal step           05/20/26 15:09:22
 Iteration:   1     *|du|/|u| =  2.5535450E-03     *Ei/E0 =  6.7887798E-01
 Iteration:   2     *|du|/|u| =  1.6492912E-04     *Ei/E0 =  1.6754229E-03
 Equilibrium established after     2 iterations                05/20/26 15:09:24

 BEGIN implicit statics  step    133 t= 1.3300E+01             05/20/26 15:09:24
     133 t 1.3200E+01 dt 1.00E-01 begin thermal step           05/20/26 15:09:24
 Iteration:   1     *|du|/|u| =  2.4564921E-03     *Ei/E0 =  6.5266395E-01
 Iteration:   2     *|du|/|u| =  2.5139740E-04     *Ei/E0 =  2.0789613E-03
 Equilibrium established after     2 iterations                05/20/26 15:09:30

 BEGIN implicit statics  step    134 t= 1.3400E+01             05/20/26 15:09:31
     134 t 1.3300E+01 dt 1.00E-01 begin thermal step           05/20/26 15:09:31
 Iteration:   1     *|du|/|u| =  2.3731488E-03     *Ei/E0 =  6.2488278E-01
 Iteration:   2     *|du|/|u| =  1.7494130E-04     *Ei/E0 =  1.6699335E-03
 Equilibrium established after     2 iterations                05/20/26 15:09:32

 BEGIN implicit statics  step    135 t= 1.3500E+01             05/20/26 15:09:32
     135 t 1.3400E+01 dt 1.00E-01 begin thermal step           05/20/26 15:09:32
 Iteration:   1     *|du|/|u| =  2.3309767E-03     *Ei/E0 =  5.9836358E-01
 Iteration:   2     *|du|/|u| =  1.6694483E-04     *Ei/E0 =  1.5019791E-03
 Equilibrium established after     2 iterations                05/20/26 15:09:37

 BEGIN implicit statics  step    136 t= 1.3600E+01             05/20/26 15:09:38
     136 t 1.3500E+01 dt 1.00E-01 begin thermal step           05/20/26 15:09:38
 Iteration:   1     *|du|/|u| =  2.2682203E-03     *Ei/E0 =  5.7523294E-01
 Iteration:   2     *|du|/|u| =  1.6229212E-04     *Ei/E0 =  1.3966883E-03
 Equilibrium established after     2 iterations                05/20/26 15:09:40
     548 t 1.3600E+01 dt 1.00E-01 write d3plot file            05/20/26 15:09:40

 BEGIN implicit statics  step    137 t= 1.3700E+01             05/20/26 15:09:40
     137 t 1.3600E+01 dt 1.00E-01 begin thermal step           05/20/26 15:09:40
 Iteration:   1     *|du|/|u| =  2.2311761E-03     *Ei/E0 =  5.5164172E-01
 Iteration:   2     *|du|/|u| =  1.5181611E-04     *Ei/E0 =  1.2292974E-03
 Equilibrium established after     2 iterations                05/20/26 15:09:45

 BEGIN implicit statics  step    138 t= 1.3800E+01             05/20/26 15:09:46
     138 t 1.3700E+01 dt 1.00E-01 begin thermal step           05/20/26 15:09:46
 Iteration:   1     *|du|/|u| =  2.1424810E-03     *Ei/E0 =  5.3306348E-01
 Iteration:   2     *|du|/|u| =  1.6389236E-04     *Ei/E0 =  1.3385621E-03
 Equilibrium established after     2 iterations                05/20/26 15:09:47

 BEGIN implicit statics  step    139 t= 1.3900E+01             05/20/26 15:09:47
     139 t 1.3800E+01 dt 1.00E-01 begin thermal step           05/20/26 15:09:47
 Iteration:   1     *|du|/|u| =  2.1626554E-03     *Ei/E0 =  5.5445557E-01
 Iteration:   2     *|du|/|u| =  1.5996719E-04     *Ei/E0 =  1.3741094E-03
 Equilibrium established after     2 iterations                05/20/26 15:09:48

 BEGIN implicit statics  step    140 t= 1.4000E+01             05/20/26 15:09:49
     140 t 1.3900E+01 dt 1.00E-01 begin thermal step           05/20/26 15:09:49
 Iteration:   1     *|du|/|u| =  2.3572140E-03     *Ei/E0 =  6.8613573E-01
 Iteration:   2     *|du|/|u| =  2.3544947E-04     *Ei/E0 =  2.0369954E-03
 Equilibrium established after     2 iterations                05/20/26 15:09:52

 BEGIN implicit statics  step    141 t= 1.4100E+01             05/20/26 15:09:53
     141 t 1.4000E+01 dt 1.00E-01 begin thermal step           05/20/26 15:09:53
 Iteration:   1     *|du|/|u| =  2.2797157E-03     *Ei/E0 =  6.6005003E-01
 Iteration:   2     *|du|/|u| =  2.0174543E-04     *Ei/E0 =  2.6015662E-03
 Equilibrium established after     2 iterations                05/20/26 15:09:55
     568 t 1.4100E+01 dt 1.00E-01 write d3plot file            05/20/26 15:09:55

 BEGIN implicit statics  step    142 t= 1.4200E+01             05/20/26 15:09:55
     142 t 1.4100E+01 dt 1.00E-01 begin thermal step           05/20/26 15:09:55
 Iteration:   1     *|du|/|u| =  2.1962377E-03     *Ei/E0 =  6.3190332E-01
 Iteration:   2     *|du|/|u| =  2.0480410E-04     *Ei/E0 =  2.5382476E-03
 Equilibrium established after     2 iterations                05/20/26 15:09:56

 BEGIN implicit statics  step    143 t= 1.4300E+01             05/20/26 15:09:56
     143 t 1.4200E+01 dt 1.00E-01 begin thermal step           05/20/26 15:09:56
 Iteration:   1     *|du|/|u| =  2.1574657E-03     *Ei/E0 =  6.0421198E-01
 Iteration:   2     *|du|/|u| =  1.9790743E-04     *Ei/E0 =  2.3271347E-03
 Equilibrium established after     2 iterations                05/20/26 15:10:00

 BEGIN implicit statics  step    144 t= 1.4400E+01             05/20/26 15:10:01
     144 t 1.4300E+01 dt 1.00E-01 begin thermal step           05/20/26 15:10:01
 Iteration:   1     *|du|/|u| =  2.1134885E-03     *Ei/E0 =  5.7920311E-01
 Iteration:   2     *|du|/|u| =  2.2414428E-04     *Ei/E0 =  2.2485265E-03
 Equilibrium established after     2 iterations                05/20/26 15:10:02

 BEGIN implicit statics  step    145 t= 1.4500E+01             05/20/26 15:10:02
     145 t 1.4400E+01 dt 1.00E-01 begin thermal step           05/20/26 15:10:02
 Iteration:   1     *|du|/|u| =  1.9805681E-03     *Ei/E0 =  5.6140882E-01
 Iteration:   2     *|du|/|u| =  1.8953219E-04     *Ei/E0 =  1.7810151E-03
 Equilibrium established after     2 iterations                05/20/26 15:10:03

 BEGIN implicit statics  step    146 t= 1.4600E+01             05/20/26 15:10:03
     146 t 1.4500E+01 dt 1.00E-01 begin thermal step           05/20/26 15:10:03
 Iteration:   1     *|du|/|u| =  2.1209794E-03     *Ei/E0 =  6.5653456E-01
 Iteration:   2     *|du|/|u| =  1.8986960E-04     *Ei/E0 =  1.8747534E-03
 Equilibrium established after     2 iterations                05/20/26 15:10:04
     588 t 1.4600E+01 dt 1.00E-01 write d3plot file            05/20/26 15:10:04

 BEGIN implicit statics  step    147 t= 1.4700E+01             05/20/26 15:10:04
     147 t 1.4600E+01 dt 1.00E-01 begin thermal step           05/20/26 15:10:04
 Iteration:   1     *|du|/|u| =  2.1735006E-03     *Ei/E0 =  7.1346662E-01
 Iteration:   2     *|du|/|u| =  2.0110986E-04     *Ei/E0 =  2.2442609E-03
 Equilibrium established after     2 iterations                05/20/26 15:10:05

 BEGIN implicit statics  step    148 t= 1.4800E+01             05/20/26 15:10:05
     148 t 1.4700E+01 dt 1.00E-01 begin thermal step           05/20/26 15:10:05
 Iteration:   1     *|du|/|u| =  2.0673677E-03     *Ei/E0 =  6.8525423E-01
 Iteration:   2     *|du|/|u| =  1.9237758E-04     *Ei/E0 =  2.0135174E-03
 Equilibrium established after     2 iterations                05/20/26 15:10:07

 BEGIN implicit statics  step    149 t= 1.4900E+01             05/20/26 15:10:07
     149 t 1.4800E+01 dt 1.00E-01 begin thermal step           05/20/26 15:10:07
 Iteration:   1     *|du|/|u| =  2.0092242E-03     *Ei/E0 =  6.5639727E-01
 Iteration:   2     *|du|/|u| =  1.8795107E-04     *Ei/E0 =  1.9671863E-03
 Equilibrium established after     2 iterations                05/20/26 15:10:11

 BEGIN implicit statics  step    150 t= 1.5000E+01             05/20/26 15:10:11
     150 t 1.4900E+01 dt 1.00E-01 begin thermal step           05/20/26 15:10:11
 Iteration:   1     *|du|/|u| =  1.9770920E-03     *Ei/E0 =  6.2720961E-01
 Iteration:   2     *|du|/|u| =  1.7806669E-04     *Ei/E0 =  1.7627289E-03
 Equilibrium established after     2 iterations                05/20/26 15:10:12

 BEGIN implicit statics  step    151 t= 1.5100E+01             05/20/26 15:10:12
     151 t 1.5000E+01 dt 1.00E-01 begin thermal step           05/20/26 15:10:12
 Iteration:   1     *|du|/|u| =  1.9206158E-03     *Ei/E0 =  6.0271988E-01
 Iteration:   2     *|du|/|u| =  1.7280042E-04     *Ei/E0 =  1.6362612E-03
 Equilibrium established after     2 iterations                05/20/26 15:10:15
     608 t 1.5100E+01 dt 1.00E-01 write d3plot file            05/20/26 15:10:15

 BEGIN implicit statics  step    152 t= 1.5200E+01             05/20/26 15:10:15
     152 t 1.5100E+01 dt 1.00E-01 begin thermal step           05/20/26 15:10:15
 Iteration:   1     *|du|/|u| =  1.8810150E-03     *Ei/E0 =  5.7812301E-01
 Iteration:   2     *|du|/|u| =  1.6603650E-04     *Ei/E0 =  1.4835950E-03
 Equilibrium established after     2 iterations                05/20/26 15:10:18

 BEGIN implicit statics  step    153 t= 1.5300E+01             05/20/26 15:10:18
     153 t 1.5200E+01 dt 1.00E-01 begin thermal step           05/20/26 15:10:18
 Iteration:   1     *|du|/|u| =  1.7590807E-03     *Ei/E0 =  5.6163794E-01
 Iteration:   2     *|du|/|u| =  1.8582057E-04     *Ei/E0 =  1.6866542E-03
 Equilibrium established after     2 iterations                05/20/26 15:10:20

 BEGIN implicit statics  step    154 t= 1.5400E+01             05/20/26 15:10:20
     154 t 1.5300E+01 dt 1.00E-01 begin thermal step           05/20/26 15:10:20
 Iteration:   1     *|du|/|u| =  1.7314140E-03     *Ei/E0 =  5.3879820E-01
 Iteration:   2     *|du|/|u| =  1.7120869E-04     *Ei/E0 =  1.4893301E-03
 Equilibrium established after     2 iterations                05/20/26 15:10:24

 BEGIN implicit statics  step    155 t= 1.5500E+01             05/20/26 15:10:24
     155 t 1.5400E+01 dt 1.00E-01 begin thermal step           05/20/26 15:10:24
 Iteration:   1     *|du|/|u| =  1.8160543E-03     *Ei/E0 =  5.9197608E-01
 Iteration:   2     *|du|/|u| =  2.2020612E-04     *Ei/E0 =  2.1484997E-03
 Equilibrium established after     2 iterations                05/20/26 15:10:27

 BEGIN implicit statics  step    156 t= 1.5600E+01             05/20/26 15:10:27
     156 t 1.5500E+01 dt 1.00E-01 begin thermal step           05/20/26 15:10:27
 Iteration:   1     *|du|/|u| =  1.9283924E-03     *Ei/E0 =  6.9372011E-01
 Iteration:   2     *|du|/|u| =  2.1941936E-04     *Ei/E0 =  2.9568204E-03
 Equilibrium established after     2 iterations                05/20/26 15:10:29
     628 t 1.5600E+01 dt 1.00E-01 write d3plot file            05/20/26 15:10:29

 BEGIN implicit statics  step    157 t= 1.5700E+01             05/20/26 15:10:29
     157 t 1.5600E+01 dt 1.00E-01 begin thermal step           05/20/26 15:10:29
 Iteration:   1     *|du|/|u| =  1.8377069E-03     *Ei/E0 =  6.6331099E-01
 Iteration:   2     *|du|/|u| =  2.2725593E-04     *Ei/E0 =  3.1973356E-03
 Equilibrium established after     2 iterations                05/20/26 15:10:30

 BEGIN implicit statics  step    158 t= 1.5800E+01             05/20/26 15:10:30
     158 t 1.5700E+01 dt 1.00E-01 begin thermal step           05/20/26 15:10:30
 Iteration:   1     *|du|/|u| =  1.7937121E-03     *Ei/E0 =  6.3397452E-01
 Iteration:   2     *|du|/|u| =  2.3020606E-04     *Ei/E0 =  3.0774797E-03
 Equilibrium established after     2 iterations                05/20/26 15:10:32

 BEGIN implicit statics  step    159 t= 1.5900E+01             05/20/26 15:10:32
     159 t 1.5800E+01 dt 1.00E-01 begin thermal step           05/20/26 15:10:32
 Iteration:   1     *|du|/|u| =  1.7590791E-03     *Ei/E0 =  6.0943300E-01
 Iteration:   2     *|du|/|u| =  3.3560595E-04     *Ei/E0 =  2.7417618E-03
 Equilibrium established after     2 iterations                05/20/26 15:10:33

 BEGIN implicit statics  step    160 t= 1.6000E+01             05/20/26 15:10:33
     160 t 1.5900E+01 dt 1.00E-01 begin thermal step           05/20/26 15:10:33
 Iteration:   1     *|du|/|u| =  1.6707303E-03     *Ei/E0 =  5.8671692E-01
 Iteration:   2     *|du|/|u| =  2.0456020E-04     *Ei/E0 =  2.2360953E-03
 Equilibrium established after     2 iterations                05/20/26 15:10:34

 BEGIN implicit statics  step    161 t= 1.6100E+01             05/20/26 15:10:34
     161 t 1.6000E+01 dt 1.00E-01 begin thermal step           05/20/26 15:10:34
 Iteration:   1     *|du|/|u| =  1.6404336E-03     *Ei/E0 =  5.6394091E-01
 Iteration:   2     *|du|/|u| =  1.8890555E-04     *Ei/E0 =  1.8770636E-03
 Equilibrium established after     2 iterations                05/20/26 15:10:38
     648 t 1.6100E+01 dt 1.00E-01 write d3plot file            05/20/26 15:10:39

 BEGIN implicit statics  step    162 t= 1.6200E+01             05/20/26 15:10:39
     162 t 1.6100E+01 dt 1.00E-01 begin thermal step           05/20/26 15:10:39
 Iteration:   1     *|du|/|u| =  1.7770501E-03     *Ei/E0 =  7.0306374E-01
 Iteration:   2     *|du|/|u| =  2.0372750E-04     *Ei/E0 =  2.1772860E-03
 Equilibrium established after     2 iterations                05/20/26 15:10:42

 BEGIN implicit statics  step    163 t= 1.6300E+01             05/20/26 15:10:44
     163 t 1.6200E+01 dt 1.00E-01 begin thermal step           05/20/26 15:10:44
 Iteration:   1     *|du|/|u| =  1.7783705E-03     *Ei/E0 =  7.1602474E-01
 Iteration:   2     *|du|/|u| =  1.9751395E-04     *Ei/E0 =  2.1394161E-03
 Equilibrium established after     2 iterations                05/20/26 15:10:47

 BEGIN implicit statics  step    164 t= 1.6400E+01             05/20/26 15:10:47
     164 t 1.6300E+01 dt 1.00E-01 begin thermal step           05/20/26 15:10:47
 Iteration:   1     *|du|/|u| =  1.6898689E-03     *Ei/E0 =  6.8928421E-01
 Iteration:   2     *|du|/|u| =  1.9616983E-04     *Ei/E0 =  2.2531066E-03
 Equilibrium established after     2 iterations                05/20/26 15:10:50

 BEGIN implicit statics  step    165 t= 1.6500E+01             05/20/26 15:10:50
     165 t 1.6400E+01 dt 1.00E-01 begin thermal step           05/20/26 15:10:50
 Iteration:   1     *|du|/|u| =  1.6592347E-03     *Ei/E0 =  6.5798082E-01
 Iteration:   2     *|du|/|u| =  1.8348875E-04     *Ei/E0 =  2.0330960E-03
 Equilibrium established after     2 iterations                05/20/26 15:10:52

 BEGIN implicit statics  step    166 t= 1.6600E+01             05/20/26 15:10:52
     166 t 1.6500E+01 dt 1.00E-01 begin thermal step           05/20/26 15:10:52
 Iteration:   1     *|du|/|u| =  1.6268380E-03     *Ei/E0 =  6.2965680E-01
 Iteration:   2     *|du|/|u| =  2.0002370E-04     *Ei/E0 =  2.0483195E-03
 Equilibrium established after     2 iterations                05/20/26 15:10:55
     668 t 1.6600E+01 dt 1.00E-01 write d3plot file            05/20/26 15:10:55

 BEGIN implicit statics  step    167 t= 1.6700E+01             05/20/26 15:10:55
     167 t 1.6600E+01 dt 1.00E-01 begin thermal step           05/20/26 15:10:55
 Iteration:   1     *|du|/|u| =  1.5287067E-03     *Ei/E0 =  6.0881400E-01
 Iteration:   2     *|du|/|u| =  1.8136640E-04     *Ei/E0 =  1.8953733E-03
 Equilibrium established after     2 iterations                05/20/26 15:10:56

 BEGIN implicit statics  step    168 t= 1.6800E+01             05/20/26 15:10:56
     168 t 1.6700E+01 dt 1.00E-01 begin thermal step           05/20/26 15:10:56
 Iteration:   1     *|du|/|u| =  1.4568552E-03     *Ei/E0 =  5.8757444E-01
 Iteration:   2     *|du|/|u| =  1.8468247E-04     *Ei/E0 =  1.8885494E-03
 Equilibrium established after     2 iterations                05/20/26 15:10:57

 BEGIN implicit statics  step    169 t= 1.6900E+01             05/20/26 15:10:57
     169 t 1.6800E+01 dt 1.00E-01 begin thermal step           05/20/26 15:10:57
 Iteration:   1     *|du|/|u| =  1.4319488E-03     *Ei/E0 =  5.6420913E-01
 Iteration:   2     *|du|/|u| =  1.7419986E-04     *Ei/E0 =  1.7125543E-03
 Equilibrium established after     2 iterations                05/20/26 15:10:58

 BEGIN implicit statics  step    170 t= 1.7000E+01             05/20/26 15:10:58
     170 t 1.6900E+01 dt 1.00E-01 begin thermal step           05/20/26 15:10:58
 Iteration:   1     *|du|/|u| =  1.3921655E-03     *Ei/E0 =  5.4446094E-01
 Iteration:   2     *|du|/|u| =  1.8798980E-04     *Ei/E0 =  1.9549852E-03
 Equilibrium established after     2 iterations                05/20/26 15:10:59

 BEGIN implicit statics  step    171 t= 1.7100E+01             05/20/26 15:10:59
     171 t 1.7000E+01 dt 1.00E-01 begin thermal step           05/20/26 15:10:59
[...]

 BEGIN implicit statics  step   1163 t= 1.1630E+02             05/20/26 15:43:37
    1163 t 1.1620E+02 dt 1.00E-01 begin thermal step           05/20/26 15:43:37
 Iteration:   1     *|du|/|u| =  3.9708233E-04     *Ei/E0 =  2.5608130E-03
 Iteration:   2     *|du|/|u| =  6.3375364E-06     *Ei/E0 =  1.2333338E-06
 Equilibrium established after     2 iterations                05/20/26 15:43:39

 BEGIN implicit statics  step   1164 t= 1.1640E+02             05/20/26 15:43:39
    1164 t 1.1630E+02 dt 1.00E-01 begin thermal step           05/20/26 15:43:39
 Iteration:   1     *|du|/|u| =  3.9584126E-04     *Ei/E0 =  2.5430580E-03
 Iteration:   2     *|du|/|u| =  6.3272873E-06     *Ei/E0 =  1.2233408E-06
 Equilibrium established after     2 iterations                05/20/26 15:43:41

 BEGIN implicit statics  step   1165 t= 1.1650E+02             05/20/26 15:43:41
    1165 t 1.1640E+02 dt 1.00E-01 begin thermal step           05/20/26 15:43:41
 Iteration:   1     *|du|/|u| =  3.9460365E-04     *Ei/E0 =  2.5254284E-03
 Iteration:   2     *|du|/|u| =  6.3368958E-06     *Ei/E0 =  1.2131480E-06
 Equilibrium established after     2 iterations                05/20/26 15:43:41

 BEGIN implicit statics  step   1166 t= 1.1660E+02             05/20/26 15:43:41
    1166 t 1.1650E+02 dt 1.00E-01 begin thermal step           05/20/26 15:43:41
 Iteration:   1     *|du|/|u| =  3.9336886E-04     *Ei/E0 =  2.5079239E-03
 Iteration:   2     *|du|/|u| =  6.3111755E-06     *Ei/E0 =  1.2019662E-06
 Equilibrium established after     2 iterations                05/20/26 15:43:43

 BEGIN implicit statics  step   1167 t= 1.1670E+02             05/20/26 15:43:43
    1167 t 1.1660E+02 dt 1.00E-01 begin thermal step           05/20/26 15:43:43
 Iteration:   1     *|du|/|u| =  3.9213706E-04     *Ei/E0 =  2.4905446E-03
 Iteration:   2     *|du|/|u| =  6.2858135E-06     *Ei/E0 =  1.1904722E-06
 Equilibrium established after     2 iterations                05/20/26 15:43:45
    4672 t 1.1670E+02 dt 1.00E-01 write d3plot file            05/20/26 15:43:45

 BEGIN implicit statics  step   1168 t= 1.1680E+02             05/20/26 15:43:45
    1168 t 1.1670E+02 dt 1.00E-01 begin thermal step           05/20/26 15:43:45
 Iteration:   1     *|du|/|u| =  3.9090844E-04     *Ei/E0 =  2.4732892E-03
 Iteration:   2     *|du|/|u| =  6.2603750E-06     *Ei/E0 =  1.1790634E-06
 Equilibrium established after     2 iterations                05/20/26 15:43:46

 BEGIN implicit statics  step   1169 t= 1.1690E+02             05/20/26 15:43:46
    1169 t 1.1680E+02 dt 1.00E-01 begin thermal step           05/20/26 15:43:46
 Iteration:   1     *|du|/|u| =  3.8968425E-04     *Ei/E0 =  2.4561569E-03
 Iteration:   2     *|du|/|u| =  6.2319173E-06     *Ei/E0 =  1.1678768E-06
 Equilibrium established after     2 iterations                05/20/26 15:43:49

 BEGIN implicit statics  step   1170 t= 1.1700E+02             05/20/26 15:43:49
    1170 t 1.1690E+02 dt 1.00E-01 begin thermal step           05/20/26 15:43:49
 Iteration:   1     *|du|/|u| =  3.8846386E-04     *Ei/E0 =  2.4391467E-03
 Iteration:   2     *|du|/|u| =  6.2025102E-06     *Ei/E0 =  1.1568843E-06
 Equilibrium established after     2 iterations                05/20/26 15:43:52

 BEGIN implicit statics  step   1171 t= 1.1710E+02             05/20/26 15:43:52
    1171 t 1.1700E+02 dt 1.00E-01 begin thermal step           05/20/26 15:43:52
 Iteration:   1     *|du|/|u| =  3.8724705E-04     *Ei/E0 =  2.4222574E-03
 Iteration:   2     *|du|/|u| =  6.1731151E-06     *Ei/E0 =  1.1460517E-06
 Equilibrium established after     2 iterations                05/20/26 15:43:53

 BEGIN implicit statics  step   1172 t= 1.1720E+02             05/20/26 15:43:55
    1172 t 1.1710E+02 dt 1.00E-01 begin thermal step           05/20/26 15:43:55
 Iteration:   1     *|du|/|u| =  3.8603388E-04     *Ei/E0 =  2.4054882E-03
 Iteration:   2     *|du|/|u| =  6.1438776E-06     *Ei/E0 =  1.1353402E-06
 Equilibrium established after     2 iterations                05/20/26 15:43:56
    4692 t 1.1720E+02 dt 1.00E-01 write d3plot file            05/20/26 15:43:56

 BEGIN implicit statics  step   1173 t= 1.1730E+02             05/20/26 15:43:56
    1173 t 1.1720E+02 dt 1.00E-01 begin thermal step           05/20/26 15:43:56
 Iteration:   1     *|du|/|u| =  3.8482434E-04     *Ei/E0 =  2.3888382E-03
 Iteration:   2     *|du|/|u| =  6.1147922E-06     *Ei/E0 =  1.1247385E-06
 Equilibrium established after     2 iterations                05/20/26 15:43:59

 BEGIN implicit statics  step   1174 t= 1.1740E+02             05/20/26 15:43:59
    1174 t 1.1730E+02 dt 1.00E-01 begin thermal step           05/20/26 15:43:59
 Iteration:   1     *|du|/|u| =  3.8361840E-04     *Ei/E0 =  2.3723066E-03
 Iteration:   2     *|du|/|u| =  6.0858545E-06     *Ei/E0 =  1.1142432E-06
 Equilibrium established after     2 iterations                05/20/26 15:43:59

 BEGIN implicit statics  step   1175 t= 1.1750E+02             05/20/26 15:43:59
    1175 t 1.1740E+02 dt 1.00E-01 begin thermal step           05/20/26 15:43:59
 Iteration:   1     *|du|/|u| =  3.8241606E-04     *Ei/E0 =  2.3558925E-03
 Iteration:   2     *|du|/|u| =  6.0570638E-06     *Ei/E0 =  1.1038525E-06
 Equilibrium established after     2 iterations                05/20/26 15:44:00

 BEGIN implicit statics  step   1176 t= 1.1760E+02             05/20/26 15:44:00
    1176 t 1.1750E+02 dt 1.00E-01 begin thermal step           05/20/26 15:44:00
 Iteration:   1     *|du|/|u| =  3.8121729E-04     *Ei/E0 =  2.3395950E-03
 Iteration:   2     *|du|/|u| =  6.0284200E-06     *Ei/E0 =  1.0935650E-06
 Equilibrium established after     2 iterations                05/20/26 15:44:01

 BEGIN implicit statics  step   1177 t= 1.1770E+02             05/20/26 15:44:01
    1177 t 1.1760E+02 dt 1.00E-01 begin thermal step           05/20/26 15:44:01
 Iteration:   1     *|du|/|u| =  3.8002210E-04     *Ei/E0 =  2.3234133E-03
 Iteration:   2     *|du|/|u| =  5.9999226E-06     *Ei/E0 =  1.0833790E-06
 Equilibrium established after     2 iterations                05/20/26 15:44:02
    4712 t 1.1770E+02 dt 1.00E-01 write d3plot file            05/20/26 15:44:02

 BEGIN implicit statics  step   1178 t= 1.1780E+02             05/20/26 15:44:02
    1178 t 1.1770E+02 dt 1.00E-01 begin thermal step           05/20/26 15:44:02
 Iteration:   1     *|du|/|u| =  3.7883047E-04     *Ei/E0 =  2.3073466E-03
 Iteration:   2     *|du|/|u| =  5.9715715E-06     *Ei/E0 =  1.0732932E-06
 Equilibrium established after     2 iterations                05/20/26 15:44:03

 BEGIN implicit statics  step   1179 t= 1.1790E+02             05/20/26 15:44:03
    1179 t 1.1780E+02 dt 1.00E-01 begin thermal step           05/20/26 15:44:03
 Iteration:   1     *|du|/|u| =  3.7764240E-04     *Ei/E0 =  2.2913939E-03
 Iteration:   2     *|du|/|u| =  5.9433660E-06     *Ei/E0 =  1.0633064E-06
 Equilibrium established after     2 iterations                05/20/26 15:44:03

 BEGIN implicit statics  step   1180 t= 1.1800E+02             05/20/26 15:44:04
    1180 t 1.1790E+02 dt 1.00E-01 begin thermal step           05/20/26 15:44:04
 Iteration:   1     *|du|/|u| =  3.7645787E-04     *Ei/E0 =  2.2755545E-03
 Iteration:   2     *|du|/|u| =  5.9153057E-06     *Ei/E0 =  1.0534173E-06
 Equilibrium established after     2 iterations                05/20/26 15:44:06

 BEGIN implicit statics  step   1181 t= 1.1810E+02             05/20/26 15:44:06
    1181 t 1.1800E+02 dt 1.00E-01 begin thermal step           05/20/26 15:44:06
 Iteration:   1     *|du|/|u| =  3.7527688E-04     *Ei/E0 =  2.2598275E-03
 Iteration:   2     *|du|/|u| =  5.8873898E-06     *Ei/E0 =  1.0436247E-06
 Equilibrium established after     2 iterations                05/20/26 15:44:06

 BEGIN implicit statics  step   1182 t= 1.1820E+02             05/20/26 15:44:06
    1182 t 1.1810E+02 dt 1.00E-01 begin thermal step           05/20/26 15:44:06
 Iteration:   1     *|du|/|u| =  3.7409941E-04     *Ei/E0 =  2.2442121E-03
 Iteration:   2     *|du|/|u| =  5.8596176E-06     *Ei/E0 =  1.0339275E-06
 Equilibrium established after     2 iterations                05/20/26 15:44:10
    4732 t 1.1820E+02 dt 1.00E-01 write d3plot file            05/20/26 15:44:10

 BEGIN implicit statics  step   1183 t= 1.1830E+02             05/20/26 15:44:10
    1183 t 1.1820E+02 dt 1.00E-01 begin thermal step           05/20/26 15:44:10
 Iteration:   1     *|du|/|u| =  3.7292547E-04     *Ei/E0 =  2.2287075E-03
 Iteration:   2     *|du|/|u| =  5.8319884E-06     *Ei/E0 =  1.0243247E-06
 Equilibrium established after     2 iterations                05/20/26 15:44:15

 BEGIN implicit statics  step   1184 t= 1.1840E+02             05/20/26 15:44:16
    1184 t 1.1830E+02 dt 1.00E-01 begin thermal step           05/20/26 15:44:16
 Iteration:   1     *|du|/|u| =  3.7175537E-04     *Ei/E0 =  2.2133135E-03
 Iteration:   2     *|du|/|u| =  5.7744945E-06     *Ei/E0 =  1.0157426E-06
 Equilibrium established after     2 iterations                05/20/26 15:44:16

 BEGIN implicit statics  step   1185 t= 1.1850E+02             05/20/26 15:44:16
    1185 t 1.1840E+02 dt 1.00E-01 begin thermal step           05/20/26 15:44:16
 Iteration:   1     *|du|/|u| =  3.7058882E-04     *Ei/E0 =  2.1980273E-03
 Iteration:   2     *|du|/|u| =  5.7462298E-06     *Ei/E0 =  1.0065642E-06
 Equilibrium established after     2 iterations                05/20/26 15:44:18

 BEGIN implicit statics  step   1186 t= 1.1860E+02             05/20/26 15:44:19
    1186 t 1.1850E+02 dt 1.00E-01 begin thermal step           05/20/26 15:44:19
 Iteration:   1     *|du|/|u| =  3.6942542E-04     *Ei/E0 =  2.1828499E-03
 Iteration:   2     *|du|/|u| =  5.7192077E-06     *Ei/E0 =  9.9728896E-07
 Equilibrium established after     2 iterations                05/20/26 15:44:19

 BEGIN implicit statics  step   1187 t= 1.1870E+02             05/20/26 15:44:19
    1187 t 1.1860E+02 dt 1.00E-01 begin thermal step           05/20/26 15:44:19
 Iteration:   1     *|du|/|u| =  3.6826547E-04     *Ei/E0 =  2.1677803E-03
 Iteration:   2     *|du|/|u| =  5.6923318E-06     *Ei/E0 =  9.8805582E-07
 Equilibrium established after     2 iterations                05/20/26 15:44:20
    4752 t 1.1870E+02 dt 1.00E-01 write d3plot file            05/20/26 15:44:20

 BEGIN implicit statics  step   1188 t= 1.1880E+02             05/20/26 15:44:20
    1188 t 1.1870E+02 dt 1.00E-01 begin thermal step           05/20/26 15:44:20
 Iteration:   1     *|du|/|u| =  3.6710900E-04     *Ei/E0 =  2.1528175E-03
 Iteration:   2     *|du|/|u| =  5.6655881E-06     *Ei/E0 =  9.7889720E-07
 Equilibrium established after     2 iterations                05/20/26 15:44:22

 BEGIN implicit statics  step   1189 t= 1.1890E+02             05/20/26 15:44:22
    1189 t 1.1880E+02 dt 1.00E-01 begin thermal step           05/20/26 15:44:22
 Iteration:   1     *|du|/|u| =  3.6595599E-04     *Ei/E0 =  2.1379607E-03
 Iteration:   2     *|du|/|u| =  5.6389803E-06     *Ei/E0 =  9.6982215E-07
 Equilibrium established after     2 iterations                05/20/26 15:44:23

 BEGIN implicit statics  step   1190 t= 1.1900E+02             05/20/26 15:44:23
    1190 t 1.1890E+02 dt 1.00E-01 begin thermal step           05/20/26 15:44:23
 Iteration:   1     *|du|/|u| =  3.6480645E-04     *Ei/E0 =  2.1232092E-03
 Iteration:   2     *|du|/|u| =  5.6125090E-06     *Ei/E0 =  9.6083334E-07
 Equilibrium established after     2 iterations                05/20/26 15:44:23

 BEGIN implicit statics  step   1191 t= 1.1910E+02             05/20/26 15:44:23
    1191 t 1.1900E+02 dt 1.00E-01 begin thermal step           05/20/26 15:44:23
 Iteration:   1     *|du|/|u| =  3.6366034E-04     *Ei/E0 =  2.1085621E-03
 Iteration:   2     *|du|/|u| =  5.5861740E-06     *Ei/E0 =  9.5193126E-07
 Equilibrium established after     2 iterations                05/20/26 15:44:25

 BEGIN implicit statics  step   1192 t= 1.1920E+02             05/20/26 15:44:25
    1192 t 1.1910E+02 dt 1.00E-01 begin thermal step           05/20/26 15:44:25
 Iteration:   1     *|du|/|u| =  3.6251768E-04     *Ei/E0 =  2.0940187E-03
 Iteration:   2     *|du|/|u| =  5.5599746E-06     *Ei/E0 =  9.4311555E-07
 Equilibrium established after     2 iterations                05/20/26 15:44:26
    4772 t 1.1920E+02 dt 1.00E-01 write d3plot file            05/20/26 15:44:26

 BEGIN implicit statics  step   1193 t= 1.1930E+02             05/20/26 15:44:26
    1193 t 1.1920E+02 dt 1.00E-01 begin thermal step           05/20/26 15:44:26
 Iteration:   1     *|du|/|u| =  3.6137845E-04     *Ei/E0 =  2.0795782E-03
 Iteration:   2     *|du|/|u| =  5.5339100E-06     *Ei/E0 =  9.3438549E-07
 Equilibrium established after     2 iterations                05/20/26 15:44:27

 BEGIN implicit statics  step   1194 t= 1.1940E+02             05/20/26 15:44:27
    1194 t 1.1930E+02 dt 1.00E-01 begin thermal step           05/20/26 15:44:27
 Iteration:   1     *|du|/|u| =  3.6024264E-04     *Ei/E0 =  2.0652399E-03
 Iteration:   2     *|du|/|u| =  5.5079795E-06     *Ei/E0 =  9.2574022E-07
 Equilibrium established after     2 iterations                05/20/26 15:44:29

 BEGIN implicit statics  step   1195 t= 1.1950E+02             05/20/26 15:44:30
    1195 t 1.1940E+02 dt 1.00E-01 begin thermal step           05/20/26 15:44:30
 Iteration:   1     *|du|/|u| =  3.5911024E-04     *Ei/E0 =  2.0510030E-03
 Iteration:   2     *|du|/|u| =  5.4821820E-06     *Ei/E0 =  9.1717882E-07
 Equilibrium established after     2 iterations                05/20/26 15:44:31

 BEGIN implicit statics  step   1196 t= 1.1960E+02             05/20/26 15:44:31
    1196 t 1.1950E+02 dt 1.00E-01 begin thermal step           05/20/26 15:44:31
 Iteration:   1     *|du|/|u| =  3.5798125E-04     *Ei/E0 =  2.0368668E-03
 Iteration:   2     *|du|/|u| =  5.4565169E-06     *Ei/E0 =  9.0870036E-07
 Equilibrium established after     2 iterations                05/20/26 15:44:32

 BEGIN implicit statics  step   1197 t= 1.1970E+02             05/20/26 15:44:32
    1197 t 1.1960E+02 dt 1.00E-01 begin thermal step           05/20/26 15:44:32
 Iteration:   1     *|du|/|u| =  3.5685565E-04     *Ei/E0 =  2.0228306E-03
 Iteration:   2     *|du|/|u| =  5.4309833E-06     *Ei/E0 =  9.0030393E-07
 Equilibrium established after     2 iterations                05/20/26 15:44:32
    4792 t 1.1970E+02 dt 1.00E-01 write d3plot file            05/20/26 15:44:32

 BEGIN implicit statics  step   1198 t= 1.1980E+02             05/20/26 15:44:32
    1198 t 1.1970E+02 dt 1.00E-01 begin thermal step           05/20/26 15:44:32
 Iteration:   1     *|du|/|u| =  3.5573344E-04     *Ei/E0 =  2.0088936E-03
 Iteration:   2     *|du|/|u| =  5.4055804E-06     *Ei/E0 =  8.9198863E-07
 Equilibrium established after     2 iterations                05/20/26 15:44:33

 BEGIN implicit statics  step   1199 t= 1.1990E+02             05/20/26 15:44:34
    1199 t 1.1980E+02 dt 1.00E-01 begin thermal step           05/20/26 15:44:34
 Iteration:   1     *|du|/|u| =  3.5461461E-04     *Ei/E0 =  1.9950551E-03
 Iteration:   2     *|du|/|u| =  5.3803073E-06     *Ei/E0 =  8.8375359E-07
 Equilibrium established after     2 iterations                05/20/26 15:44:34

 BEGIN implicit statics  step   1200 t= 1.1995E+02             05/20/26 15:44:35
    1200 t 1.1990E+02 dt 1.00E-01 begin thermal step           05/20/26 15:44:35
         t 1.2000E+02             end   thermal step soln=   1 05/20/26 15:44:35
 Iteration:   1     *|du|/|u| =  1.7777870E-04     *Ei/E0 =  4.9543174E-04
 Iteration:   2     *|du|/|u| =  3.5080990E-06     *Ei/E0 =  3.9054244E-07
 Equilibrium established after     2 iterations                05/20/26 15:44:35

 BEGIN implicit statics  step   1201 t= 1.2000E+02             05/20/26 15:44:35
 Iteration:   1     *|du|/|u| =  1.7705983E-04     *Ei/E0 =  4.9513180E-04
 Iteration:   2     *|du|/|u| =  2.9621517E-06     *Ei/E0 =  2.8041071E-07
 Equilibrium established after     2 iterations                05/20/26 15:44:37
    4808 t 1.2000E+02 dt 5.00E-02 write d3plot file            05/20/26 15:44:37
 
 *** termination time reached ***
    4808 t 1.2000E+02 dt 5.00E-02 write d3dump01 file          05/20/26 15:44:37

 N o r m a l    t e r m i n a t i o n                          05/20/26 15:44:37

 Thermal dynamically allocated memory   :     329K

 Memory required to complete solution   :     577K
 Linear Alg dynamically allocated memory:    1869K
 Additional dynamically allocated memory:      24M
                                   Total:      27M

 T i m i n g   i n f o r m a t i o n
                        CPU(seconds)   %CPU  Clock(seconds) %Clock
  ----------------------------------------------------------------
  Keyword Processing ... 7.8866E-01    0.01     9.8652E-02    0.00
    KW Reading ......... 4.0547E-01    0.00     5.0754E-02    0.00
    KW Writing ......... 1.5446E-01    0.00     1.9310E-02    0.00
  Initialization ....... 5.3580E+00    0.05     6.9002E+00    0.29
    Init Proc Phase 1 .. 1.8853E+00    0.02     5.3418E+00    0.23
    Init Proc Phase 2 .. 1.6557E-02    0.00     1.0185E+00    0.04
  Element processing ... 1.4598E+03   14.94     1.8301E+02    7.79
    Solids ............. 1.4507E+03   14.85     1.8220E+02    7.76
    E Other ............ 5.8462E+00    0.06     5.3550E-01    0.02
  Binary databases ..... 4.3368E+00    0.04     5.3854E-01    0.02
  ASCII database ....... 1.5956E+00    0.02     1.7178E-01    0.01
  Contact algorithm .... 2.9276E+00    0.03     4.6684E-02    0.00
  Rigid Bodies ......... 1.9067E-01    0.00     2.3868E-02    0.00
  Implicit ............. 4.3681E+01    0.45     6.9439E+00    0.30
  Implicit Nonlinear ... 2.7803E+03   28.46     1.0715E+03   45.63
    Imp. NL force mod .. 9.0887E+01    0.93     1.1352E+01    0.48
  Implicit Lin. Alg. ... 3.6529E+03   37.39     8.4868E+02   36.14
    Imp. LA Mtx Assemb . 3.5426E+02    3.63     4.4713E+01    1.90
    Imp. LA Factor ..... 1.2175E+03   12.46     1.5225E+02    6.48
    Imp. LA Solve ...... 2.0806E+03   21.30     6.5165E+02   27.75
  Thermal .............. 1.8028E+03   18.45     2.2534E+02    9.60
    Element processing . 6.2778E+02    6.43     7.8473E+01    3.34
    Solver ............. 6.3246E+01    0.65     7.9208E+00    0.34
    Other .............. 1.1117E+03   11.38     1.3894E+02    5.92
  Time step size ....... 6.6358E-01    0.01     5.3738E-02    0.00
  Others ............... 3.4109E+00    0.03     2.2343E-01    0.01
  Misc. 1 .............. 3.3571E+00    0.03     3.6663E+00    0.16
    Scale Masses ....... 2.4352E-01    0.00     9.3767E-02    0.00
  Misc. 3 .............. 6.6984E-01    0.01     6.0633E-02    0.00
  Misc. 4 .............. 6.8508E+00    0.07     1.0900E+00    0.05
    Timestep Init ...... 1.8557E+00    0.02     4.9795E-01    0.02
    Apply Loads ........ 8.1487E-01    0.01     1.5079E-01    0.01
    Compute exwork ..... 3.7825E-01    0.00     3.5325E-02    0.00
  ----------------------------------------------------------------
  T o t a l s            9.7696E+03  100.00     2.3483E+03  100.00

 Problem time       =    1.2000E+02
 Problem cycle      =      4808
 Total CPU time     =      9770 seconds (   2 hours 42 minutes 50 seconds)
 CPU time per zone cycle  =     712517.879 nanoseconds
 Clock time per zone cycle=     170864.430 nanoseconds

 Number of CPU's    8
 NLQ used/max     192/  192
 Start time   05/20/2026 15:05:29  
 End time     05/20/2026 15:44:37  
 Elapsed time    2348 seconds for    4808 cycles using  8 SMP threads
             (      0 hour  39 minutes  8 seconds)

 N o r m a l    t e r m i n a t i o n                          05/20/26 15:44:37
  GREAT SUCCES: LS-DYNA færdig – eksporterer geometri...
(EE) 
Fatal server error:
(EE) Server is already active for display 99
	If this server is no longer running, remove /tmp/.X99-lock
	and start again.
(EE) 
Maximum number of clients reached/home/ubuntu/dyna/lsprepost4.12_common/lspp412_mesa: line 8: 19966 Segmentation fault      (core dumped) $DN/lsprepost $*
  ERROR: Eksport fejlede – stopper
