nohup: ignoring input
Kører fra: /home/ubuntu/dyna_pladebuk/Plade_300_150_4/differentmeshsizes/Convergence 1

  GREAT SUCCES: Alle filer fundet

  ITERATION 1/1
  Kører LS-DYNA...
 License option : check network license only


 ***************************************************************
 *            ANSYS 2023 R1          LEGAL NOTICES             *
 ***************************************************************
 *                                                             *
 * Copyright 1971-2022 ANSYS, Inc.  All rights reserved.       *
 * Unauthorized use, distribution or duplication is            *
 * prohibited.                                                 *
 *                                                             *
 * Ansys is a registered trademark of ANSYS, Inc. or its       *
 * subsidiaries in the United States or other countries.       *
 * See the ANSYS, Inc. online documentation or the ANSYS, Inc. *
 * documentation CD or online help for the complete Legal      *
 * Notice.                                                     *
 *                                                             *
 ***************************************************************
 *                                                             *
 * THIS ANSYS SOFTWARE PRODUCT AND PROGRAM DOCUMENTATION       *
 * INCLUDE TRADE SECRETS AND CONFIDENTIAL AND PROPRIETARY      *
 * PRODUCTS OF ANSYS, INC., ITS SUBSIDIARIES, OR LICENSORS.    *
 * The software products and documentation are furnished by    *
 * ANSYS, Inc. or its subsidiaries under a software license    *
 * agreement that contains provisions concerning               *
 * non-disclosure, copying, length and nature of use,          *
 * compliance with exporting laws, warranties, disclaimers,    *
 * limitations of liability, and remedies, and other           *
 * provisions.  The software products and documentation may be *
 * used, disclosed, transferred, or copied only in accordance  *
 * with the terms and conditions of that software license      *
 * agreement.                                                  *
 *                                                             *
 * ANSYS, Inc. is a UL registered                              *
 * ISO 9001:2015 company.                                      *
 *                                                             *
 ***************************************************************
 *                                                             *
 * This product is subject to U.S. laws governing export and   *
 * re-export.                                                  *
 *                                                             *
 * For U.S. Government users, except as specifically granted   *
 * by the ANSYS, Inc. software license agreement, the use,     *
 * duplication, or disclosure by the United States Government  *
 * is subject to restrictions stated in the ANSYS, Inc.        *
 * software license agreement and FAR 12.212 (for non-DOD      *
 * licenses).                                                  *
 *                                                             *
 ***************************************************************

      Date: 05/20/2026      Time: 09:09:22  
      ___________________________________________________ 
     |                                                   |
     |  LS-DYNA, A Program for Nonlinear Dynamic         |
     |  Analysis of Structures in Three Dimensions       |
     |  Date    : 12/12/2022    Time: 11:35:09           |
     |  Version : smp d R14                              |
     |  Revision: R14.0-515-g8a12796b62                  |
     |                                                   |
     |  Features enabled in this version:                |
     |    Shared Memory Parallel                         |
     |    CESE CHEMISTRY EM ICFD STOCHASTIC_PARTICLES    |
     |    FFTW (multi-dimensional FFTW Library)          |
     |    ARPACK (nonsymmetric eigensolver library)      |
     |    ANSYSLIC enabled                               |
     |                                                   |
     |  Licensed to: Aalborg University -- 254321        |
     |  Issued by  : pranay_chaudhari_09182025           |
     |                                                   |
     |  Platform   : Xeon64 System                       |
     |  OS Level   : Linux 4.4.49 uom                    |
     |  Compiler   : Intel Fortran Compiler 19.0 SSE2    |
     |  Hostname   : dyna-network2                       |
     |  Precision  : Double precision (I8R8)             |
     |                                                   |
     |  Unauthorized use infringes Ansys, Inc. copyrights|
     |___________________________________________________|

 > i=main.k ncpu=8

 Executing with LSTC network license

 Command line options: i=main.k 
                       ncpu=8

 Input file: main.k                                                                          

 The native file format       : 64-bit small endian
 Memory size from default     :   100000000

 on UNIX computers note the following change:

 ctrl-c interrupts ls-dyna and prompts for a sense  switch.
 type the desired sense switch: sw1., sw2., etc. to continue
 the execution.  ls-dyna will respond as explained in the users manual

    type                      response
   -----   ------------------------------------------------------------
   quit    ls-dyna terminates.
   stop    ls-dyna terminates.
   sw1.    a restart file is written and ls-dyna terminates.
   sw2.    ls-dyna responds with time and cycle numbers.    
   sw3.    a restart file is written and ls-dyna continues calculations.
   sw4.    a plot state is written and ls-dyna continues calculations.
   sw5.    ls-dyna enters interactive graphics phase.
   swa.    ls-dyna flushes all output i/o buffers.
   swb.    a dynain is written and ls-dyna continues calculations.
   swc.    a restart and dynain are written and ls-dyna continues calculations.
   swd.    a restart and dynain are written and ls-dyna terminates.
   swe.    stop dynamic relaxation just as though convergence
   endtime=time change the termination time
   lpri    toggle implicit lin. alg. solver output on/off.
   nlpr    toggle implicit nonlinear solver output on/off.
   iter    toggle implicit output to d3iter database on/off.
   prof    output timing data to messag and continue.
   conv    force implicit nonlinear convergence for current time step.
   ttrm    terminate implicit time step, reduce time step, retry time step.
   rtrm    terminate implicit at end of current time step.


 ********  notice  ********  notice  ********  notice  ********
 *                                                            *
 * This is the LS-DYNA Finite Element code.                   *
 *                                                            *
 * Neither LST nor the authors assume any responsibility for  *
 * the validity, accuracy, or applicability of any results    *
 * obtained from this system. Users must verify their own     *
 * results.                                                   *
 *                                                            *
 * LST endeavors to make the LS-DYNA code as complete,        *
 * accurate and easy to use as possible.                      *
 * Suggestions and comments are welcomed.  Please report any  *
 * errors encountered in either the documentation or results  *
 * immediately to LST through your site focus.                *
 *                                                            *
 * Copyright (C) 1990-2021                                    *
 * by Livermore Software Technology, LLC                      *
 * All rights reserved                                        *
 *                                                            *
 ********  notice  ********  notice  ********  notice  ********

 Beginning of keyword reader                                   05/20/26 09:09:22

                                                               05/20/26 09:09:22
 Open include file: boundary.k

                                                               05/20/26 09:09:22
 Open include file: MAT_CWM355.k

                                                               05/20/26 09:09:22
 Open include file: geometry.k

 Memory required to process keyword     :     230083  
 Additional dynamic memory required     :    2651749  


 input of data is completed

 initial kinetic energy = 0.00000000E+00

 Memory required for implicit solution  :       866147

 termination time                  = 1.200E+02

 Thermal dynamically allocated memory   :     573K

 Memory required to begin solution      :     867K
 Linear Alg dynamically allocated memory:      48K
 Additional dynamically allocated memory:    5629K
                                   Total:    7115K

 initialization completed
       1 t 0.0000E+00 dt 1.00E-01 begin thermal step           05/20/26 09:09:24

 calculation with mass scaling for minimum dt
    added mass   =   0.0000E+00
    physical mass=   1.4040E-03
    ratio        =   0.0000E+00
       1 t 0.0000E+00 dt 1.00E-01 flush i/o buffers            05/20/26 09:09:24
       1 t 0.0000E+00 dt 1.00E-01 write d3plot file            05/20/26 09:09:24

 BEGIN implicit statics  step      1 t= 1.0000E-01             05/20/26 09:09:24


     ================================================
     ==            IMPLICIT USAGE ALERT            ==
     ================================================
     == Memory Management for Implicit has changed ==
     == after R10.  Please use:                    ==
     ==       memory=     1M                       ==
     ================================================

 Iteration:   1     *|du|/|u| =  1.0000000E+00     *Ei/E0 =  1.0000000E+00
 Iteration:   2     *|du|/|u| =  8.6573610E-02     *Ei/E0 =  4.7384311E-02
 Iteration:   3     *|du|/|u| =  1.7258233E-02     *Ei/E0 =  1.2770007E-04
 Iteration:   4     *|du|/|u| =  4.2481182E-03     *Ei/E0 =  6.2703256E-06
 Equilibrium established after     4 iterations                05/20/26 09:09:27
    
 estimated total cpu time          =     21264 sec (       5 hrs 54 mins)
 estimated cpu time to complete    =     21242 sec (       5 hrs 54 mins)
 estimated total clock time        =      3854 sec (       1 hrs  4 mins)
 estimated clock time to complete  =      3850 sec (       1 hrs  4 mins)

 BEGIN implicit statics  step      2 t= 2.0000E-01             05/20/26 09:09:27
       2 t 1.0000E-01 dt 1.00E-01 begin thermal step           05/20/26 09:09:27
 Iteration:   1     *|du|/|u| =  3.2061639E-03     *Ei/E0 =  1.0000000E+00
 Iteration:   2     *|du|/|u| =  1.2641031E-04     *Ei/E0 =  1.3541404E-08
 Equilibrium established after     2 iterations                05/20/26 09:09:29

 BEGIN implicit statics  step      3 t= 3.0000E-01             05/20/26 09:09:29
       3 t 2.0000E-01 dt 1.00E-01 begin thermal step           05/20/26 09:09:29
 Iteration:   1     *|du|/|u| =  3.2074929E-03     *Ei/E0 =  9.5860773E-01
 Iteration:   2     *|du|/|u| =  1.4130315E-04     *Ei/E0 =  1.4026969E-08
 Equilibrium established after     2 iterations                05/20/26 09:09:30

 BEGIN implicit statics  step      4 t= 4.0000E-01             05/20/26 09:09:30
       4 t 3.0000E-01 dt 1.00E-01 begin thermal step           05/20/26 09:09:30
 Iteration:   1     *|du|/|u| =  3.2121625E-03     *Ei/E0 =  9.2543096E-01
 Iteration:   2     *|du|/|u| =  1.4167162E-04     *Ei/E0 =  1.3872052E-08
 Equilibrium established after     2 iterations                05/20/26 09:09:31

 BEGIN implicit statics  step      5 t= 5.0000E-01             05/20/26 09:09:31
       5 t 4.0000E-01 dt 1.00E-01 begin thermal step           05/20/26 09:09:31
 Iteration:   1     *|du|/|u| =  3.2068839E-03     *Ei/E0 =  8.9267441E-01
 Iteration:   2     *|du|/|u| =  1.3945841E-04     *Ei/E0 =  1.3627584E-08
 Equilibrium established after     2 iterations                05/20/26 09:09:32
      25 t 5.0000E-01 dt 1.00E-01 write d3plot file            05/20/26 09:09:32

 BEGIN implicit statics  step      6 t= 6.0000E-01             05/20/26 09:09:32
       6 t 5.0000E-01 dt 1.00E-01 begin thermal step           05/20/26 09:09:32
 Iteration:   1     *|du|/|u| =  3.2423715E-03     *Ei/E0 =  8.7688730E-01
 Iteration:   2     *|du|/|u| =  1.4138002E-04     *Ei/E0 =  1.3801647E-08
 Equilibrium established after     2 iterations                05/20/26 09:09:33

 BEGIN implicit statics  step      7 t= 7.0000E-01             05/20/26 09:09:33
       7 t 6.0000E-01 dt 1.00E-01 begin thermal step           05/20/26 09:09:33
 Iteration:   1     *|du|/|u| =  3.3254210E-03     *Ei/E0 =  8.8293933E-01
 Iteration:   2     *|du|/|u| =  1.4910881E-04     *Ei/E0 =  1.4548935E-08
 Equilibrium established after     2 iterations                05/20/26 09:09:35

 BEGIN implicit statics  step      8 t= 8.0000E-01             05/20/26 09:09:35
       8 t 7.0000E-01 dt 1.00E-01 begin thermal step           05/20/26 09:09:35
 Iteration:   1     *|du|/|u| =  3.3500222E-03     *Ei/E0 =  8.6883669E-01
 Iteration:   2     *|du|/|u| =  1.5148796E-04     *Ei/E0 =  1.4846938E-08
 Equilibrium established after     2 iterations                05/20/26 09:09:36

 BEGIN implicit statics  step      9 t= 9.0000E-01             05/20/26 09:09:36
       9 t 8.0000E-01 dt 1.00E-01 begin thermal step           05/20/26 09:09:36
 Iteration:   1     *|du|/|u| =  3.3841847E-03     *Ei/E0 =  8.5854363E-01
 Iteration:   2     *|du|/|u| =  1.5422389E-04     *Ei/E0 =  1.5264423E-08
 Equilibrium established after     2 iterations                05/20/26 09:09:37
    
 estimated total cpu time          =      9820 sec (       2 hrs 43 mins)
 estimated cpu time to complete    =      9742 sec (       2 hrs 42 mins)
 estimated total clock time        =      1404 sec (       0 hrs 23 mins)
 estimated clock time to complete  =      1392 sec (       0 hrs 23 mins)

 BEGIN implicit statics  step     10 t= 1.0000E+00             05/20/26 09:09:37
      10 t 9.0000E-01 dt 1.00E-01 begin thermal step           05/20/26 09:09:37
 Iteration:   1     *|du|/|u| =  3.3844619E-03     *Ei/E0 =  8.3826155E-01
 Iteration:   2     *|du|/|u| =  1.5301488E-04     *Ei/E0 =  1.5328652E-08
 Equilibrium established after     2 iterations                05/20/26 09:09:38

 BEGIN implicit statics  step     11 t= 1.1000E+00             05/20/26 09:09:38
      11 t 1.0000E+00 dt 1.00E-01 begin thermal step           05/20/26 09:09:38
 Iteration:   1     *|du|/|u| =  3.3954062E-03     *Ei/E0 =  8.2275268E-01
 Iteration:   2     *|du|/|u| =  1.5240985E-04     *Ei/E0 =  1.5491166E-08
 Equilibrium established after     2 iterations                05/20/26 09:09:40
      49 t 1.1000E+00 dt 1.00E-01 write d3plot file            05/20/26 09:09:40

 BEGIN implicit statics  step     12 t= 1.2000E+00             05/20/26 09:09:40
      12 t 1.1000E+00 dt 1.00E-01 begin thermal step           05/20/26 09:09:40
 Iteration:   1     *|du|/|u| =  3.4857932E-03     *Ei/E0 =  8.3957145E-01
 Iteration:   2     *|du|/|u| =  1.6082085E-04     *Ei/E0 =  1.6405755E-08
 Equilibrium established after     2 iterations                05/20/26 09:09:41

 BEGIN implicit statics  step     13 t= 1.3000E+00             05/20/26 09:09:41
      13 t 1.2000E+00 dt 1.00E-01 begin thermal step           05/20/26 09:09:41
 Iteration:   1     *|du|/|u| =  3.5321854E-03     *Ei/E0 =  8.4009328E-01
 Iteration:   2     *|du|/|u| =  1.6594056E-04     *Ei/E0 =  1.7073284E-08
 Equilibrium established after     2 iterations                05/20/26 09:09:42

 BEGIN implicit statics  step     14 t= 1.4000E+00             05/20/26 09:09:42
      14 t 1.3000E+00 dt 1.00E-01 begin thermal step           05/20/26 09:09:42
 Iteration:   1     *|du|/|u| =  3.5602210E-03     *Ei/E0 =  8.3112489E-01
 Iteration:   2     *|du|/|u| =  1.6834233E-04     *Ei/E0 =  1.7680770E-08
 Equilibrium established after     2 iterations                05/20/26 09:09:44

 BEGIN implicit statics  step     15 t= 1.5000E+00             05/20/26 09:09:44
      15 t 1.4000E+00 dt 1.00E-01 begin thermal step           05/20/26 09:09:44
 Iteration:   1     *|du|/|u| =  3.5633461E-03     *Ei/E0 =  8.1539381E-01
 Iteration:   2     *|du|/|u| =  1.6688218E-04     *Ei/E0 =  1.7868590E-08
 Equilibrium established after     2 iterations                05/20/26 09:09:45
      65 t 1.5000E+00 dt 1.00E-01 write d3plot file            05/20/26 09:09:45

 BEGIN implicit statics  step     16 t= 1.6000E+00             05/20/26 09:09:45
      16 t 1.5000E+00 dt 1.00E-01 begin thermal step           05/20/26 09:09:45
 Iteration:   1     *|du|/|u| =  3.5657256E-03     *Ei/E0 =  8.0063640E-01
 Iteration:   2     *|du|/|u| =  1.6449694E-04     *Ei/E0 =  1.7975838E-08
 Equilibrium established after     2 iterations                05/20/26 09:09:46

 BEGIN implicit statics  step     17 t= 1.7000E+00             05/20/26 09:09:46
      17 t 1.6000E+00 dt 1.00E-01 begin thermal step           05/20/26 09:09:46
 Iteration:   1     *|du|/|u| =  3.5388180E-03     *Ei/E0 =  7.7718592E-01
 Iteration:   2     *|du|/|u| =  1.5839460E-04     *Ei/E0 =  1.7675278E-08
 Equilibrium established after     2 iterations                05/20/26 09:09:47

 BEGIN implicit statics  step     18 t= 1.8000E+00             05/20/26 09:09:47
      18 t 1.7000E+00 dt 1.00E-01 begin thermal step           05/20/26 09:09:47
 Iteration:   1     *|du|/|u| =  3.5734200E-03     *Ei/E0 =  7.7417827E-01
 Iteration:   2     *|du|/|u| =  1.5899796E-04     *Ei/E0 =  1.8096102E-08
 Equilibrium established after     2 iterations                05/20/26 09:09:49

 BEGIN implicit statics  step     19 t= 1.9000E+00             05/20/26 09:09:49
      19 t 1.8000E+00 dt 1.00E-01 begin thermal step           05/20/26 09:09:49
 Iteration:   1     *|du|/|u| =  3.6594302E-03     *Ei/E0 =  7.9272677E-01
 Iteration:   2     *|du|/|u| =  1.6671228E-04     *Ei/E0 =  1.8988101E-08
 Equilibrium established after     2 iterations                05/20/26 09:09:50

 BEGIN implicit statics  step     20 t= 2.0000E+00             05/20/26 09:09:50
      20 t 1.9000E+00 dt 1.00E-01 begin thermal step           05/20/26 09:09:50
 Iteration:   1     *|du|/|u| =  3.6839700E-03     *Ei/E0 =  7.8799679E-01
 Iteration:   2     *|du|/|u| =  1.6894505E-04     *Ei/E0 =  1.9470279E-08
 Equilibrium established after     2 iterations                05/20/26 09:09:51
      85 t 2.0000E+00 dt 1.00E-01 write d3plot file            05/20/26 09:09:51

 BEGIN implicit statics  step     21 t= 2.1000E+00             05/20/26 09:09:51
      21 t 2.0000E+00 dt 1.00E-01 begin thermal step           05/20/26 09:09:51
 Iteration:   1     *|du|/|u| =  3.7232821E-03     *Ei/E0 =  7.8716272E-01
 Iteration:   2     *|du|/|u| =  1.7185459E-04     *Ei/E0 =  2.0251846E-08
 Equilibrium established after     2 iterations                05/20/26 09:09:52

 BEGIN implicit statics  step     22 t= 2.2000E+00             05/20/26 09:09:52
      22 t 2.1000E+00 dt 1.00E-01 begin thermal step           05/20/26 09:09:52
 Iteration:   1     *|du|/|u| =  3.7274558E-03     *Ei/E0 =  7.7522469E-01
 Iteration:   2     *|du|/|u| =  1.7061928E-04     *Ei/E0 =  2.0509452E-08
 Equilibrium established after     2 iterations                05/20/26 09:09:53

 BEGIN implicit statics  step     23 t= 2.3000E+00             05/20/26 09:09:53
      23 t 2.2000E+00 dt 1.00E-01 begin thermal step           05/20/26 09:09:53
 Iteration:   1     *|du|/|u| =  3.7276750E-03     *Ei/E0 =  7.6279998E-01
 Iteration:   2     *|du|/|u| =  1.6789072E-04     *Ei/E0 =  2.0638570E-08
 Equilibrium established after     2 iterations                05/20/26 09:09:55

 BEGIN implicit statics  step     24 t= 2.4000E+00             05/20/26 09:09:55
      24 t 2.3000E+00 dt 1.00E-01 begin thermal step           05/20/26 09:09:55
 Iteration:   1     *|du|/|u| =  3.7939051E-03     *Ei/E0 =  7.7853899E-01
 Iteration:   2     *|du|/|u| =  1.7222936E-04     *Ei/E0 =  2.1049463E-08
 Equilibrium established after     2 iterations                05/20/26 09:09:56

 BEGIN implicit statics  step     25 t= 2.5000E+00             05/20/26 09:09:56
      25 t 2.4000E+00 dt 1.00E-01 begin thermal step           05/20/26 09:09:56
 Iteration:   1     *|du|/|u| =  3.8436987E-03     *Ei/E0 =  7.8586797E-01
 Iteration:   2     *|du|/|u| =  1.7684540E-04     *Ei/E0 =  2.1738003E-08
 Equilibrium established after     2 iterations                05/20/26 09:09:57
     105 t 2.5000E+00 dt 1.00E-01 write d3plot file            05/20/26 09:09:57

 BEGIN implicit statics  step     26 t= 2.6000E+00             05/20/26 09:09:57
      26 t 2.5000E+00 dt 1.00E-01 begin thermal step           05/20/26 09:09:57
 Iteration:   1     *|du|/|u| =  3.8682112E-03     *Ei/E0 =  7.8032788E-01
 Iteration:   2     *|du|/|u| =  1.7873234E-04     *Ei/E0 =  2.2580817E-08
 Equilibrium established after     2 iterations                05/20/26 09:09:58

 BEGIN implicit statics  step     27 t= 2.7000E+00             05/20/26 09:09:58
      27 t 2.6000E+00 dt 1.00E-01 begin thermal step           05/20/26 09:09:58
 Iteration:   1     *|du|/|u| =  3.8753214E-03     *Ei/E0 =  7.7061490E-01
 Iteration:   2     *|du|/|u| =  1.7758479E-04     *Ei/E0 =  2.2916302E-08
 Equilibrium established after     2 iterations                05/20/26 09:09:59

 BEGIN implicit statics  step     28 t= 2.8000E+00             05/20/26 09:09:59
      28 t 2.7000E+00 dt 1.00E-01 begin thermal step           05/20/26 09:09:59
 Iteration:   1     *|du|/|u| =  3.8718379E-03     *Ei/E0 =  7.5896980E-01
 Iteration:   2     *|du|/|u| =  1.7432860E-04     *Ei/E0 =  2.2963647E-08
 Equilibrium established after     2 iterations                05/20/26 09:10:00

 BEGIN implicit statics  step     29 t= 2.9000E+00             05/20/26 09:10:00
      29 t 2.8000E+00 dt 1.00E-01 begin thermal step           05/20/26 09:10:00
 Iteration:   1     *|du|/|u| =  3.8506514E-03     *Ei/E0 =  7.4175237E-01
 Iteration:   2     *|du|/|u| =  1.6860212E-04     *Ei/E0 =  2.2800345E-08
 Equilibrium established after     2 iterations                05/20/26 09:10:01

 BEGIN implicit statics  step     30 t= 3.0000E+00             05/20/26 09:10:01
      30 t 2.9000E+00 dt 1.00E-01 begin thermal step           05/20/26 09:10:01
 Iteration:   1     *|du|/|u| =  3.8865581E-03     *Ei/E0 =  7.4354092E-01
 Iteration:   2     *|du|/|u| =  1.6909884E-04     *Ei/E0 =  2.3241494E-08
 Equilibrium established after     2 iterations                05/20/26 09:10:02
     125 t 3.0000E+00 dt 1.00E-01 write d3plot file            05/20/26 09:10:02

 BEGIN implicit statics  step     31 t= 3.1000E+00             05/20/26 09:10:02
      31 t 3.0000E+00 dt 1.00E-01 begin thermal step           05/20/26 09:10:02
 Iteration:   1     *|du|/|u| =  3.9456247E-03     *Ei/E0 =  7.5867984E-01
 Iteration:   2     *|du|/|u| =  1.7324173E-04     *Ei/E0 =  2.3562732E-08
 Equilibrium established after     2 iterations                05/20/26 09:10:04

 BEGIN implicit statics  step     32 t= 3.2000E+00             05/20/26 09:10:04
      32 t 3.1000E+00 dt 1.00E-01 begin thermal step           05/20/26 09:10:04
 Iteration:   1     *|du|/|u| =  3.9593017E-03     *Ei/E0 =  7.5441464E-01
 Iteration:   2     *|du|/|u| =  1.7346774E-04     *Ei/E0 =  2.3834902E-08
 Equilibrium established after     2 iterations                05/20/26 09:10:05

 BEGIN implicit statics  step     33 t= 3.3000E+00             05/20/26 09:10:05
      33 t 3.2000E+00 dt 1.00E-01 begin thermal step           05/20/26 09:10:05
 Iteration:   1     *|du|/|u| =  3.9938350E-03     *Ei/E0 =  7.5494401E-01
 Iteration:   2     *|du|/|u| =  1.7533170E-04     *Ei/E0 =  2.4647544E-08
 Equilibrium established after     2 iterations                05/20/26 09:10:07

 BEGIN implicit statics  step     34 t= 3.4000E+00             05/20/26 09:10:07
      34 t 3.3000E+00 dt 1.00E-01 begin thermal step           05/20/26 09:10:07
 Iteration:   1     *|du|/|u| =  4.0013145E-03     *Ei/E0 =  7.4694091E-01
 Iteration:   2     *|du|/|u| =  1.7444381E-04     *Ei/E0 =  2.4991565E-08
 Equilibrium established after     2 iterations                05/20/26 09:10:08

 BEGIN implicit statics  step     35 t= 3.5000E+00             05/20/26 09:10:08
      35 t 3.4000E+00 dt 1.00E-01 begin thermal step           05/20/26 09:10:08
 Iteration:   1     *|du|/|u| =  3.9988673E-03     *Ei/E0 =  7.3689715E-01
 Iteration:   2     *|du|/|u| =  1.7150255E-04     *Ei/E0 =  2.5101563E-08
 Equilibrium established after     2 iterations                05/20/26 09:10:09
     145 t 3.5000E+00 dt 1.00E-01 write d3plot file            05/20/26 09:10:09

 BEGIN implicit statics  step     36 t= 3.6000E+00             05/20/26 09:10:09
      36 t 3.5000E+00 dt 1.00E-01 begin thermal step           05/20/26 09:10:09
 Iteration:   1     *|du|/|u| =  4.0663843E-03     *Ei/E0 =  7.5655235E-01
 Iteration:   2     *|du|/|u| =  1.7566845E-04     *Ei/E0 =  2.5236655E-08
 Equilibrium established after     2 iterations                05/20/26 09:10:10

 BEGIN implicit statics  step     37 t= 3.7000E+00             05/20/26 09:10:10
      37 t 3.6000E+00 dt 1.00E-01 begin thermal step           05/20/26 09:10:10
 Iteration:   1     *|du|/|u| =  4.1144355E-03     *Ei/E0 =  7.6607491E-01
 Iteration:   2     *|du|/|u| =  1.8013476E-04     *Ei/E0 =  2.5797653E-08
 Equilibrium established after     2 iterations                05/20/26 09:10:11

 BEGIN implicit statics  step     38 t= 3.8000E+00             05/20/26 09:10:11
      38 t 3.7000E+00 dt 1.00E-01 begin thermal step           05/20/26 09:10:11
 Iteration:   1     *|du|/|u| =  4.1086341E-03     *Ei/E0 =  7.5454803E-01
 Iteration:   2     *|du|/|u| =  1.7813286E-04     *Ei/E0 =  2.6330310E-08
 Equilibrium established after     2 iterations                05/20/26 09:10:13

 BEGIN implicit statics  step     39 t= 3.9000E+00             05/20/26 09:10:13
      39 t 3.8000E+00 dt 1.00E-01 begin thermal step           05/20/26 09:10:13
 Iteration:   1     *|du|/|u| =  4.1121259E-03     *Ei/E0 =  7.4625696E-01
 Iteration:   2     *|du|/|u| =  1.7551987E-04     *Ei/E0 =  2.6617678E-08
 Equilibrium established after     2 iterations                05/20/26 09:10:14

 BEGIN implicit statics  step     40 t= 4.0000E+00             05/20/26 09:10:14
      40 t 3.9000E+00 dt 1.00E-01 begin thermal step           05/20/26 09:10:14
 Iteration:   1     *|du|/|u| =  4.1063678E-03     *Ei/E0 =  7.3632457E-01
 Iteration:   2     *|du|/|u| =  1.7178166E-04     *Ei/E0 =  2.6586428E-08
 Equilibrium established after     2 iterations                05/20/26 09:10:15
     165 t 4.0000E+00 dt 1.00E-01 write d3plot file            05/20/26 09:10:15

 BEGIN implicit statics  step     41 t= 4.1000E+00             05/20/26 09:10:15
      41 t 4.0000E+00 dt 1.00E-01 begin thermal step           05/20/26 09:10:15
 Iteration:   1     *|du|/|u| =  4.0896438E-03     *Ei/E0 =  7.2258729E-01
 Iteration:   2     *|du|/|u| =  1.6664482E-04     *Ei/E0 =  2.6520775E-08
 Equilibrium established after     2 iterations                05/20/26 09:10:16

 BEGIN implicit statics  step     42 t= 4.2000E+00             05/20/26 09:10:16
      42 t 4.1000E+00 dt 1.00E-01 begin thermal step           05/20/26 09:10:16
 Iteration:   1     *|du|/|u| =  4.1002691E-03     *Ei/E0 =  7.1974200E-01
 Iteration:   2     *|du|/|u| =  1.6407171E-04     *Ei/E0 =  2.6700865E-08
 Equilibrium established after     2 iterations                05/20/26 09:10:17

 BEGIN implicit statics  step     43 t= 4.3000E+00             05/20/26 09:10:17
      43 t 4.2000E+00 dt 1.00E-01 begin thermal step           05/20/26 09:10:17
 Iteration:   1     *|du|/|u| =  4.1451812E-03     *Ei/E0 =  7.3546870E-01
 Iteration:   2     *|du|/|u| =  1.6547217E-04     *Ei/E0 =  2.6600303E-08
 Equilibrium established after     2 iterations                05/20/26 09:10:18

 BEGIN implicit statics  step     44 t= 4.4000E+00             05/20/26 09:10:18
      44 t 4.3000E+00 dt 1.00E-01 begin thermal step           05/20/26 09:10:18
 Iteration:   1     *|du|/|u| =  4.1567018E-03     *Ei/E0 =  7.3313282E-01
 Iteration:   2     *|du|/|u| =  1.6516546E-04     *Ei/E0 =  2.6790468E-08
 Equilibrium established after     2 iterations                05/20/26 09:10:19

 BEGIN implicit statics  step     45 t= 4.5000E+00             05/20/26 09:10:19
      45 t 4.4000E+00 dt 1.00E-01 begin thermal step           05/20/26 09:10:19
 Iteration:   1     *|du|/|u| =  4.1848301E-03     *Ei/E0 =  7.3361686E-01
 Iteration:   2     *|du|/|u| =  1.6624393E-04     *Ei/E0 =  2.7571506E-08
 Equilibrium established after     2 iterations                05/20/26 09:10:20
     185 t 4.5000E+00 dt 1.00E-01 write d3plot file            05/20/26 09:10:20

 BEGIN implicit statics  step     46 t= 4.6000E+00             05/20/26 09:10:20
      46 t 4.5000E+00 dt 1.00E-01 begin thermal step           05/20/26 09:10:20
 Iteration:   1     *|du|/|u| =  4.1928328E-03     *Ei/E0 =  7.2779052E-01
 Iteration:   2     *|du|/|u| =  1.6557164E-04     *Ei/E0 =  2.8004810E-08
 Equilibrium established after     2 iterations                05/20/26 09:10:21

 BEGIN implicit statics  step     47 t= 4.7000E+00             05/20/26 09:10:21
      47 t 4.6000E+00 dt 1.00E-01 begin thermal step           05/20/26 09:10:21
 Iteration:   1     *|du|/|u| =  4.1855587E-03     *Ei/E0 =  7.1854163E-01
 Iteration:   2     *|du|/|u| =  1.6253574E-04     *Ei/E0 =  2.8051404E-08
 Equilibrium established after     2 iterations                05/20/26 09:10:22

 BEGIN implicit statics  step     48 t= 4.8000E+00             05/20/26 09:10:23
      48 t 4.7000E+00 dt 1.00E-01 begin thermal step           05/20/26 09:10:23
 Iteration:   1     *|du|/|u| =  4.2252364E-03     *Ei/E0 =  7.3358710E-01
 Iteration:   2     *|du|/|u| =  1.6295923E-04     *Ei/E0 =  2.7787072E-08
 Equilibrium established after     2 iterations                05/20/26 09:10:24

 BEGIN implicit statics  step     49 t= 4.9000E+00             05/20/26 09:10:24
      49 t 4.8000E+00 dt 1.00E-01 begin thermal step           05/20/26 09:10:24
 Iteration:   1     *|du|/|u| =  4.2397760E-03     *Ei/E0 =  7.3748141E-01
 Iteration:   2     *|du|/|u| =  1.6233513E-04     *Ei/E0 =  2.7907375E-08
 Equilibrium established after     2 iterations                05/20/26 09:10:25

 BEGIN implicit statics  step     50 t= 5.0000E+00             05/20/26 09:10:25
      50 t 4.9000E+00 dt 1.00E-01 begin thermal step           05/20/26 09:10:25
 Iteration:   1     *|du|/|u| =  4.2191116E-03     *Ei/E0 =  7.2494171E-01
 Iteration:   2     *|du|/|u| =  1.5795402E-04     *Ei/E0 =  2.8255862E-08
 Equilibrium established after     2 iterations                05/20/26 09:10:26

 BEGIN implicit statics  step     51 t= 5.1000E+00             05/20/26 09:10:26
      51 t 5.0000E+00 dt 1.00E-01 begin thermal step           05/20/26 09:10:26
 Iteration:   1     *|du|/|u| =  4.2226746E-03     *Ei/E0 =  7.1852102E-01
 Iteration:   2     *|du|/|u| =  1.5518205E-04     *Ei/E0 =  2.8596618E-08
 Equilibrium established after     2 iterations                05/20/26 09:10:27
     209 t 5.1000E+00 dt 1.00E-01 write d3plot file            05/20/26 09:10:27

 BEGIN implicit statics  step     52 t= 5.2000E+00             05/20/26 09:10:27
      52 t 5.1000E+00 dt 1.00E-01 begin thermal step           05/20/26 09:10:27
 Iteration:   1     *|du|/|u| =  4.2118350E-03     *Ei/E0 =  7.0897687E-01
 Iteration:   2     *|du|/|u| =  1.5152399E-04     *Ei/E0 =  2.8492896E-08
 Equilibrium established after     2 iterations                05/20/26 09:10:28

 BEGIN implicit statics  step     53 t= 5.3000E+00             05/20/26 09:10:28
      53 t 5.2000E+00 dt 1.00E-01 begin thermal step           05/20/26 09:10:28
 Iteration:   1     *|du|/|u| =  4.1965529E-03     *Ei/E0 =  6.9711054E-01
 Iteration:   2     *|du|/|u| =  1.4731053E-04     *Ei/E0 =  2.8552449E-08
 Equilibrium established after     2 iterations                05/20/26 09:10:29

 BEGIN implicit statics  step     54 t= 5.4000E+00             05/20/26 09:10:29
      54 t 5.3000E+00 dt 1.00E-01 begin thermal step           05/20/26 09:10:29
 Iteration:   1     *|du|/|u| =  4.1796544E-03     *Ei/E0 =  6.8984790E-01
 Iteration:   2     *|du|/|u| =  1.4219395E-04     *Ei/E0 =  2.8792515E-08
 Equilibrium established after     2 iterations                05/20/26 09:10:30

 BEGIN implicit statics  step     55 t= 5.5000E+00             05/20/26 09:10:30
      55 t 5.4000E+00 dt 1.00E-01 begin thermal step           05/20/26 09:10:30
 Iteration:   1     *|du|/|u| =  4.1808273E-03     *Ei/E0 =  6.9942051E-01
 Iteration:   2     *|du|/|u| =  1.3796248E-04     *Ei/E0 =  2.8220915E-08
 Equilibrium established after     2 iterations                05/20/26 09:10:32

 BEGIN implicit statics  step     56 t= 5.6000E+00             05/20/26 09:10:32
      56 t 5.5000E+00 dt 1.00E-01 begin thermal step           05/20/26 09:10:32
 Iteration:   1     *|du|/|u| =  4.1904874E-03     *Ei/E0 =  6.9763681E-01
 Iteration:   2     *|du|/|u| =  1.3612756E-04     *Ei/E0 =  2.8329855E-08
 Equilibrium established after     2 iterations                05/20/26 09:10:33
     229 t 5.6000E+00 dt 1.00E-01 write d3plot file            05/20/26 09:10:33

 BEGIN implicit statics  step     57 t= 5.7000E+00             05/20/26 09:10:33
      57 t 5.6000E+00 dt 1.00E-01 begin thermal step           05/20/26 09:10:33
 Iteration:   1     *|du|/|u| =  4.2061745E-03     *Ei/E0 =  6.9601476E-01
 Iteration:   2     *|du|/|u| =  1.3549477E-04     *Ei/E0 =  2.9123304E-08
 Equilibrium established after     2 iterations                05/20/26 09:10:34

 BEGIN implicit statics  step     58 t= 5.8000E+00             05/20/26 09:10:34
      58 t 5.7000E+00 dt 1.00E-01 begin thermal step           05/20/26 09:10:34
 Iteration:   1     *|du|/|u| =  4.1929705E-03     *Ei/E0 =  6.8634109E-01
 Iteration:   2     *|du|/|u| =  1.3249155E-04     *Ei/E0 =  2.9925870E-08
 Equilibrium established after     2 iterations                05/20/26 09:10:35

 BEGIN implicit statics  step     59 t= 5.9000E+00             05/20/26 09:10:35
      59 t 5.8000E+00 dt 1.00E-01 begin thermal step           05/20/26 09:10:35
 Iteration:   1     *|du|/|u| =  4.1795984E-03     *Ei/E0 =  6.7598441E-01
 Iteration:   2     *|du|/|u| =  1.2897232E-04     *Ei/E0 =  2.9839455E-08
 Equilibrium established after     2 iterations                05/20/26 09:10:37

 BEGIN implicit statics  step     60 t= 6.0000E+00             05/20/26 09:10:37
      60 t 5.9000E+00 dt 1.00E-01 begin thermal step           05/20/26 09:10:37
 Iteration:   1     *|du|/|u| =  4.2216822E-03     *Ei/E0 =  6.9517628E-01
 Iteration:   2     *|du|/|u| =  1.2918173E-04     *Ei/E0 =  2.9326161E-08
 Equilibrium established after     2 iterations                05/20/26 09:10:38

 BEGIN implicit statics  step     61 t= 6.1000E+00             05/20/26 09:10:38
      61 t 6.0000E+00 dt 1.00E-01 begin thermal step           05/20/26 09:10:38
 Iteration:   1     *|du|/|u| =  4.1902618E-03     *Ei/E0 =  6.9191591E-01
 Iteration:   2     *|du|/|u| =  1.2425736E-04     *Ei/E0 =  2.9791958E-08
 Equilibrium established after     2 iterations                05/20/26 09:10:39
     249 t 6.1000E+00 dt 1.00E-01 write d3plot file            05/20/26 09:10:39

 BEGIN implicit statics  step     62 t= 6.2000E+00             05/20/26 09:10:39
      62 t 6.1000E+00 dt 1.00E-01 begin thermal step           05/20/26 09:10:39
 Iteration:   1     *|du|/|u| =  4.1465715E-03     *Ei/E0 =  6.7577111E-01
 Iteration:   2     *|du|/|u| =  1.1752630E-04     *Ei/E0 =  3.0331592E-08
 Equilibrium established after     2 iterations                05/20/26 09:10:43

 BEGIN implicit statics  step     63 t= 6.3000E+00             05/20/26 09:10:43
      63 t 6.2000E+00 dt 1.00E-01 begin thermal step           05/20/26 09:10:43
 Iteration:   1     *|du|/|u| =  4.1341641E-03     *Ei/E0 =  6.6612926E-01
 Iteration:   2     *|du|/|u| =  1.1317193E-04     *Ei/E0 =  3.1339000E-08
 Equilibrium established after     2 iterations                05/20/26 09:10:44

 BEGIN implicit statics  step     64 t= 6.4000E+00             05/20/26 09:10:44
      64 t 6.3000E+00 dt 1.00E-01 begin thermal step           05/20/26 09:10:44
 Iteration:   1     *|du|/|u| =  4.0952164E-03     *Ei/E0 =  6.5151930E-01
 Iteration:   2     *|du|/|u| =  1.0756637E-04     *Ei/E0 =  3.1826680E-08
 Equilibrium established after     2 iterations                05/20/26 09:10:45

 BEGIN implicit statics  step     65 t= 6.5000E+00             05/20/26 09:10:45
      65 t 6.4000E+00 dt 1.00E-01 begin thermal step           05/20/26 09:10:45
 Iteration:   1     *|du|/|u| =  4.0483127E-03     *Ei/E0 =  6.3368056E-01
 Iteration:   2     *|du|/|u| =  1.0119530E-04     *Ei/E0 =  3.3021122E-08
 Equilibrium established after     2 iterations                05/20/26 09:10:46

 BEGIN implicit statics  step     66 t= 6.6000E+00             05/20/26 09:10:46
      66 t 6.5000E+00 dt 1.00E-01 begin thermal step           05/20/26 09:10:46
 Iteration:   1     *|du|/|u| =  3.9970391E-03     *Ei/E0 =  6.2224631E-01
 Iteration:   2     *|du|/|u| =  9.3934450E-05     *Ei/E0 =  3.4917465E-08
 Equilibrium established after     2 iterations                05/20/26 09:10:47
     269 t 6.6000E+00 dt 1.00E-01 write d3plot file            05/20/26 09:10:48

 BEGIN implicit statics  step     67 t= 6.7000E+00             05/20/26 09:10:48
      67 t 6.6000E+00 dt 1.00E-01 begin thermal step           05/20/26 09:10:48
 Iteration:   1     *|du|/|u| =  3.9573093E-03     *Ei/E0 =  6.2740640E-01
 Iteration:   2     *|du|/|u| =  8.6799457E-05     *Ei/E0 =  3.6748814E-08
 Equilibrium established after     2 iterations                05/20/26 09:10:49

 BEGIN implicit statics  step     68 t= 6.8000E+00             05/20/26 09:10:49
      68 t 6.7000E+00 dt 1.00E-01 begin thermal step           05/20/26 09:10:49
 Iteration:   1     *|du|/|u| =  3.9411497E-03     *Ei/E0 =  6.2253386E-01
 Iteration:   2     *|du|/|u| =  8.2718585E-05     *Ei/E0 =  3.7903050E-08
 Equilibrium established after     2 iterations                05/20/26 09:10:50

 BEGIN implicit statics  step     69 t= 6.9000E+00             05/20/26 09:10:50
      69 t 6.8000E+00 dt 1.00E-01 begin thermal step           05/20/26 09:10:50
 Iteration:   1     *|du|/|u| =  3.9461561E-03     *Ei/E0 =  6.2078171E-01
 Iteration:   2     *|du|/|u| =  8.0929968E-05     *Ei/E0 =  3.9117062E-08
 Equilibrium established after     2 iterations                05/20/26 09:10:51

 BEGIN implicit statics  step     70 t= 7.0000E+00             05/20/26 09:10:51
      70 t 6.9000E+00 dt 1.00E-01 begin thermal step           05/20/26 09:10:51
 Iteration:   1     *|du|/|u| =  3.9132066E-03     *Ei/E0 =  6.1087181E-01
 Iteration:   2     *|du|/|u| =  7.7357973E-05     *Ei/E0 =  4.1192207E-08
 Equilibrium established after     2 iterations                05/20/26 09:10:52

 BEGIN implicit statics  step     71 t= 7.1000E+00             05/20/26 09:10:52
      71 t 7.0000E+00 dt 1.00E-01 begin thermal step           05/20/26 09:10:52
 Iteration:   1     *|du|/|u| =  3.8841737E-03     *Ei/E0 =  5.9828891E-01
 Iteration:   2     *|du|/|u| =  7.3895501E-05     *Ei/E0 =  4.1796233E-08
 Equilibrium established after     2 iterations                05/20/26 09:10:53
     289 t 7.1000E+00 dt 1.00E-01 write d3plot file            05/20/26 09:10:53

 BEGIN implicit statics  step     72 t= 7.2000E+00             05/20/26 09:10:53
      72 t 7.1000E+00 dt 1.00E-01 begin thermal step           05/20/26 09:10:53
 Iteration:   1     *|du|/|u| =  3.9106239E-03     *Ei/E0 =  6.1797065E-01
 Iteration:   2     *|du|/|u| =  7.2428432E-05     *Ei/E0 =  4.2273943E-08
 Equilibrium established after     2 iterations                05/20/26 09:10:54

 BEGIN implicit statics  step     73 t= 7.3000E+00             05/20/26 09:10:54
      73 t 7.2000E+00 dt 1.00E-01 begin thermal step           05/20/26 09:10:54
 Iteration:   1     *|du|/|u| =  3.8485108E-03     *Ei/E0 =  6.1652926E-01
 Iteration:   2     *|du|/|u| =  6.6711208E-05     *Ei/E0 =  4.5281827E-08
 Equilibrium established after     2 iterations                05/20/26 09:10:56

 BEGIN implicit statics  step     74 t= 7.4000E+00             05/20/26 09:10:56
      74 t 7.3000E+00 dt 1.00E-01 begin thermal step           05/20/26 09:10:56
 Iteration:   1     *|du|/|u| =  3.7637967E-03     *Ei/E0 =  6.0029336E-01
 Iteration:   2     *|du|/|u| =  5.9565302E-05     *Ei/E0 =  5.0477234E-08
 Equilibrium established after     2 iterations                05/20/26 09:10:57

 BEGIN implicit statics  step     75 t= 7.5000E+00             05/20/26 09:10:57
      75 t 7.4000E+00 dt 1.00E-01 begin thermal step           05/20/26 09:10:57
 Iteration:   1     *|du|/|u| =  3.7530999E-03     *Ei/E0 =  5.9388023E-01
 Iteration:   2     *|du|/|u| =  5.6508862E-05     *Ei/E0 =  5.2099487E-08
 Equilibrium established after     2 iterations                05/20/26 09:10:58

 BEGIN implicit statics  step     76 t= 7.6000E+00             05/20/26 09:10:58
      76 t 7.5000E+00 dt 1.00E-01 begin thermal step           05/20/26 09:10:58
 Iteration:   1     *|du|/|u| =  3.7160024E-03     *Ei/E0 =  5.8241602E-01
 Iteration:   2     *|du|/|u| =  5.3337946E-05     *Ei/E0 =  5.2812018E-08
 Equilibrium established after     2 iterations                05/20/26 09:10:59
     309 t 7.6000E+00 dt 1.00E-01 write d3plot file            05/20/26 09:10:59

 BEGIN implicit statics  step     77 t= 7.7000E+00             05/20/26 09:10:59
      77 t 7.6000E+00 dt 1.00E-01 begin thermal step           05/20/26 09:10:59
 Iteration:   1     *|du|/|u| =  3.6713030E-03     *Ei/E0 =  5.6906174E-01
 Iteration:   2     *|du|/|u| =  4.9877730E-05     *Ei/E0 =  5.4410533E-08
 Equilibrium established after     2 iterations                05/20/26 09:11:00

 BEGIN implicit statics  step     78 t= 7.8000E+00             05/20/26 09:11:00
      78 t 7.7000E+00 dt 1.00E-01 begin thermal step           05/20/26 09:11:00
 Iteration:   1     *|du|/|u| =  3.6223052E-03     *Ei/E0 =  5.6572984E-01
 Iteration:   2     *|du|/|u| =  4.5634487E-05     *Ei/E0 =  5.6830191E-08
 Equilibrium established after     2 iterations                05/20/26 09:11:01

 BEGIN implicit statics  step     79 t= 7.9000E+00             05/20/26 09:11:01
      79 t 7.8000E+00 dt 1.00E-01 begin thermal step           05/20/26 09:11:01
 Iteration:   1     *|du|/|u| =  3.5796628E-03     *Ei/E0 =  5.7748691E-01
 Iteration:   2     *|du|/|u| =  4.0980323E-05     *Ei/E0 =  5.9127402E-08
 Equilibrium established after     2 iterations                05/20/26 09:11:02

 BEGIN implicit statics  step     80 t= 8.0000E+00             05/20/26 09:11:02
      80 t 7.9000E+00 dt 1.00E-01 begin thermal step           05/20/26 09:11:02
 Iteration:   1     *|du|/|u| =  3.5686842E-03     *Ei/E0 =  5.7696430E-01
 Iteration:   2     *|du|/|u| =  3.8627081E-05     *Ei/E0 =  6.0193290E-08
 Equilibrium established after     2 iterations                05/20/26 09:11:04

 BEGIN implicit statics  step     81 t= 8.1000E+00             05/20/26 09:11:04
      81 t 8.0000E+00 dt 1.00E-01 begin thermal step           05/20/26 09:11:04
 Iteration:   1     *|du|/|u| =  3.5707278E-03     *Ei/E0 =  5.7503143E-01
 Iteration:   2     *|du|/|u| =  3.7484094E-05     *Ei/E0 =  6.1489812E-08
 Equilibrium established after     2 iterations                05/20/26 09:11:06
     329 t 8.1000E+00 dt 1.00E-01 write d3plot file            05/20/26 09:11:06

 BEGIN implicit statics  step     82 t= 8.2000E+00             05/20/26 09:11:06
      82 t 8.1000E+00 dt 1.00E-01 begin thermal step           05/20/26 09:11:06
 Iteration:   1     *|du|/|u| =  3.5405677E-03     *Ei/E0 =  5.6795750E-01
 Iteration:   2     *|du|/|u| =  3.5404346E-05     *Ei/E0 =  6.2859603E-08
 Equilibrium established after     2 iterations                05/20/26 09:11:07

 BEGIN implicit statics  step     83 t= 8.3000E+00             05/20/26 09:11:07
      83 t 8.2000E+00 dt 1.00E-01 begin thermal step           05/20/26 09:11:07
 Iteration:   1     *|du|/|u| =  3.5139995E-03     *Ei/E0 =  5.5683926E-01
 Iteration:   2     *|du|/|u| =  6.2338713E-05     *Ei/E0 =  3.5396463E-06
 Equilibrium established after     2 iterations                05/20/26 09:11:08

 BEGIN implicit statics  step     84 t= 8.4000E+00             05/20/26 09:11:08
      84 t 8.3000E+00 dt 1.00E-01 begin thermal step           05/20/26 09:11:08
 Iteration:   1     *|du|/|u| =  3.5372685E-03     *Ei/E0 =  5.7764538E-01
 Iteration:   2     *|du|/|u| =  7.3643577E-05     *Ei/E0 =  1.9961700E-04
 Equilibrium established after     2 iterations                05/20/26 09:11:09

 BEGIN implicit statics  step     85 t= 8.5000E+00             05/20/26 09:11:10
      85 t 8.4000E+00 dt 1.00E-01 begin thermal step           05/20/26 09:11:10
 Iteration:   1     *|du|/|u| =  3.4879772E-03     *Ei/E0 =  5.8259820E-01
 Iteration:   2     *|du|/|u| =  4.9087445E-05     *Ei/E0 =  3.4260372E-04
 Equilibrium established after     2 iterations                05/20/26 09:11:11

 BEGIN implicit statics  step     86 t= 8.6000E+00             05/20/26 09:11:11
      86 t 8.5000E+00 dt 1.00E-01 begin thermal step           05/20/26 09:11:11
 Iteration:   1     *|du|/|u| =  3.4087394E-03     *Ei/E0 =  5.7111076E-01
 Iteration:   2     *|du|/|u| =  4.3060273E-05     *Ei/E0 =  3.0911573E-04
 Equilibrium established after     2 iterations                05/20/26 09:11:12
     349 t 8.6000E+00 dt 1.00E-01 write d3plot file            05/20/26 09:11:12

 BEGIN implicit statics  step     87 t= 8.7000E+00             05/20/26 09:11:12
      87 t 8.6000E+00 dt 1.00E-01 begin thermal step           05/20/26 09:11:12
 Iteration:   1     *|du|/|u| =  3.4001900E-03     *Ei/E0 =  5.6625527E-01
 Iteration:   2     *|du|/|u| =  4.1683155E-05     *Ei/E0 =  3.0465366E-04
 Equilibrium established after     2 iterations                05/20/26 09:11:13

 BEGIN implicit statics  step     88 t= 8.8000E+00             05/20/26 09:11:13
      88 t 8.7000E+00 dt 1.00E-01 begin thermal step           05/20/26 09:11:13
 Iteration:   1     *|du|/|u| =  3.3649032E-03     *Ei/E0 =  5.5591184E-01
 Iteration:   2     *|du|/|u| =  4.0685044E-05     *Ei/E0 =  3.0413487E-04
 Equilibrium established after     2 iterations                05/20/26 09:11:15

 BEGIN implicit statics  step     89 t= 8.9000E+00             05/20/26 09:11:15
      89 t 8.8000E+00 dt 1.00E-01 begin thermal step           05/20/26 09:11:15
 Iteration:   1     *|du|/|u| =  3.3225335E-03     *Ei/E0 =  5.4407980E-01
 Iteration:   2     *|du|/|u| =  5.4055254E-05     *Ei/E0 =  2.8431739E-04
 Equilibrium established after     2 iterations                05/20/26 09:11:16

 BEGIN implicit statics  step     90 t= 9.0000E+00             05/20/26 09:11:16
      90 t 8.9000E+00 dt 1.00E-01 begin thermal step           05/20/26 09:11:16
 Iteration:   1     *|du|/|u| =  3.2729607E-03     *Ei/E0 =  5.4291339E-01
 Iteration:   2     *|du|/|u| =  5.1934492E-05     *Ei/E0 =  2.4016639E-04
 Equilibrium established after     2 iterations                05/20/26 09:11:17

 BEGIN implicit statics  step     91 t= 9.1000E+00             05/20/26 09:11:17
      91 t 9.0000E+00 dt 1.00E-01 begin thermal step           05/20/26 09:11:17
forrtl: error (78): process killed (SIGTERM)

Stack trace terminated abnormally.
