nohup: ignoring input
Kører fra: /home/ubuntu/dyna_pladebuk/Plade_300_150_4/BB

  GREAT SUCCES: Alle filer fundet

  ITERATION 1/10
  Kører LS-DYNA...
 License option : check network license only


 ***************************************************************
 *            ANSYS 2023 R1          LEGAL NOTICES             *
 ***************************************************************
 *                                                             *
 * Copyright 1971-2022 ANSYS, Inc.  All rights reserved.       *
 * Unauthorized use, distribution or duplication is            *
 * prohibited.                                                 *
 *                                                             *
 * Ansys is a registered trademark of ANSYS, Inc. or its       *
 * subsidiaries in the United States or other countries.       *
 * See the ANSYS, Inc. online documentation or the ANSYS, Inc. *
 * documentation CD or online help for the complete Legal      *
 * Notice.                                                     *
 *                                                             *
 ***************************************************************
 *                                                             *
 * THIS ANSYS SOFTWARE PRODUCT AND PROGRAM DOCUMENTATION       *
 * INCLUDE TRADE SECRETS AND CONFIDENTIAL AND PROPRIETARY      *
 * PRODUCTS OF ANSYS, INC., ITS SUBSIDIARIES, OR LICENSORS.    *
 * The software products and documentation are furnished by    *
 * ANSYS, Inc. or its subsidiaries under a software license    *
 * agreement that contains provisions concerning               *
 * non-disclosure, copying, length and nature of use,          *
 * compliance with exporting laws, warranties, disclaimers,    *
 * limitations of liability, and remedies, and other           *
 * provisions.  The software products and documentation may be *
 * used, disclosed, transferred, or copied only in accordance  *
 * with the terms and conditions of that software license      *
 * agreement.                                                  *
 *                                                             *
 * ANSYS, Inc. is a UL registered                              *
 * ISO 9001:2015 company.                                      *
 *                                                             *
 ***************************************************************
 *                                                             *
 * This product is subject to U.S. laws governing export and   *
 * re-export.                                                  *
 *                                                             *
 * For U.S. Government users, except as specifically granted   *
 * by the ANSYS, Inc. software license agreement, the use,     *
 * duplication, or disclosure by the United States Government  *
 * is subject to restrictions stated in the ANSYS, Inc.        *
 * software license agreement and FAR 12.212 (for non-DOD      *
 * licenses).                                                  *
 *                                                             *
 ***************************************************************

      Date: 05/18/2026      Time: 14:35:17  
      ___________________________________________________ 
     |                                                   |
     |  LS-DYNA, A Program for Nonlinear Dynamic         |
     |  Analysis of Structures in Three Dimensions       |
     |  Date    : 12/12/2022    Time: 11:35:09           |
     |  Version : smp d R14                              |
     |  Revision: R14.0-515-g8a12796b62                  |
     |                                                   |
     |  Features enabled in this version:                |
     |    Shared Memory Parallel                         |
     |    CESE CHEMISTRY EM ICFD STOCHASTIC_PARTICLES    |
     |    FFTW (multi-dimensional FFTW Library)          |
     |    ARPACK (nonsymmetric eigensolver library)      |
     |    ANSYSLIC enabled                               |
     |                                                   |
     |  Licensed to: Aalborg University -- 254321        |
     |  Issued by  : pranay_chaudhari_09182025           |
     |                                                   |
     |  Platform   : Xeon64 System                       |
     |  OS Level   : Linux 4.4.49 uom                    |
     |  Compiler   : Intel Fortran Compiler 19.0 SSE2    |
     |  Hostname   : dyna-network2                       |
     |  Precision  : Double precision (I8R8)             |
     |                                                   |
     |  Unauthorized use infringes Ansys, Inc. copyrights|
     |___________________________________________________|

 > i=main.k ncpu=8

 Executing with LSTC network license

 Command line options: i=main.k 
                       ncpu=8

 Input file: main.k                                                                          

 The native file format       : 64-bit small endian
 Memory size from default     :   100000000

 on UNIX computers note the following change:

 ctrl-c interrupts ls-dyna and prompts for a sense  switch.
 type the desired sense switch: sw1., sw2., etc. to continue
 the execution.  ls-dyna will respond as explained in the users manual

    type                      response
   -----   ------------------------------------------------------------
   quit    ls-dyna terminates.
   stop    ls-dyna terminates.
   sw1.    a restart file is written and ls-dyna terminates.
   sw2.    ls-dyna responds with time and cycle numbers.    
   sw3.    a restart file is written and ls-dyna continues calculations.
   sw4.    a plot state is written and ls-dyna continues calculations.
   sw5.    ls-dyna enters interactive graphics phase.
   swa.    ls-dyna flushes all output i/o buffers.
   swb.    a dynain is written and ls-dyna continues calculations.
   swc.    a restart and dynain are written and ls-dyna continues calculations.
   swd.    a restart and dynain are written and ls-dyna terminates.
   swe.    stop dynamic relaxation just as though convergence
   endtime=time change the termination time
   lpri    toggle implicit lin. alg. solver output on/off.
   nlpr    toggle implicit nonlinear solver output on/off.
   iter    toggle implicit output to d3iter database on/off.
   prof    output timing data to messag and continue.
   conv    force implicit nonlinear convergence for current time step.
   ttrm    terminate implicit time step, reduce time step, retry time step.
   rtrm    terminate implicit at end of current time step.


 ********  notice  ********  notice  ********  notice  ********
 *                                                            *
 * This is the LS-DYNA Finite Element code.                   *
 *                                                            *
 * Neither LST nor the authors assume any responsibility for  *
 * the validity, accuracy, or applicability of any results    *
 * obtained from this system. Users must verify their own     *
 * results.                                                   *
 *                                                            *
 * LST endeavors to make the LS-DYNA code as complete,        *
 * accurate and easy to use as possible.                      *
 * Suggestions and comments are welcomed.  Please report any  *
 * errors encountered in either the documentation or results  *
 * immediately to LST through your site focus.                *
 *                                                            *
 * Copyright (C) 1990-2021                                    *
 * by Livermore Software Technology, LLC                      *
 * All rights reserved                                        *
 *                                                            *
 ********  notice  ********  notice  ********  notice  ********

 Beginning of keyword reader                                   05/18/26 14:35:17

                                                               05/18/26 14:35:17
 Open include file: boundary.k

                                                               05/18/26 14:35:17
 Open include file: MAT_CWM355.k

                                                               05/18/26 14:35:17
 Open include file: geometry.k

 Memory required to process keyword     :     326202  
 Additional dynamic memory required     :    3197931  

 
 *** Warning 60303 (IMP+303)
     Using IGAP=1 may result in zero contact forces.
     If this occurs set IGAP=2.
     Number of uses of IGAP=1 is 2

 input of data is completed

 initial kinetic energy = 0.00000000E+00

 The LS-DYNA time step size should not exceed     1.758E-07
 to avoid contact instabilities.  If the step size is
 bigger then scale the penalty of the offending surface.

 Memory required for implicit solution  :      2002935

 termination time                  = 1.200E+02

 Thermal dynamically allocated memory   :    1320K

 Memory required to begin solution      :    2003K
 Linear Alg dynamically allocated memory:      93K
 Additional dynamically allocated memory:      11M
                                   Total:      14M

 initialization completed
       1 t 0.0000E+00 dt 1.00E-01 begin thermal step           05/18/26 14:35:19

 calculation with mass scaling for minimum dt
    added mass   =   0.0000E+00
    physical mass=   1.4130E-03
    ratio        =   0.0000E+00
       1 t 0.0000E+00 dt 1.00E-01 flush i/o buffers            05/18/26 14:35:21
       1 t 0.0000E+00 dt 1.00E-01 write d3plot file            05/18/26 14:35:21

 BEGIN implicit statics  step      1 t= 1.0000E-01             05/18/26 14:35:21


     ================================================
     ==            IMPLICIT USAGE ALERT            ==
     ================================================
     == Memory Management for Implicit has changed ==
     == after R10.  Please use:                    ==
     ==       memory=     3M                       ==
     ================================================

 Iteration:   1     *|du|/|u| =  1.0000000E+00     *Ei/E0 =  1.0000000E+00
 Iteration:   2     *|du|/|u| =  2.1183109E-02     *Ei/E0 =  7.6430859E-04
 Iteration:   3     *|du|/|u| =  5.1006713E-03     *Ei/E0 =  1.0028080E-05
 Equilibrium established after     3 iterations                05/18/26 14:35:30
    
 estimated total cpu time          =     37387 sec (      10 hrs 23 mins)
 estimated cpu time to complete    =     37350 sec (      10 hrs 22 mins)
 estimated total clock time        =     12746 sec (       3 hrs 32 mins)
 estimated clock time to complete  =     12734 sec (       3 hrs 32 mins)

 BEGIN implicit statics  step      2 t= 2.0000E-01             05/18/26 14:35:30
       2 t 1.0000E-01 dt 1.00E-01 begin thermal step           05/18/26 14:35:30
 Iteration:   1     *|du|/|u| =  3.5414696E-02     *Ei/E0 =  1.0000000E+00
 Iteration:   2     *|du|/|u| =  2.1704024E-03     *Ei/E0 =  9.9010430E-07
 Equilibrium established after     2 iterations                05/18/26 14:35:35

 BEGIN implicit statics  step      3 t= 3.0000E-01             05/18/26 14:35:36
       3 t 2.0000E-01 dt 1.00E-01 begin thermal step           05/18/26 14:35:36
 Iteration:   1     *|du|/|u| =  2.1854708E-02     *Ei/E0 =  9.0687774E-01
 Iteration:   2     *|du|/|u| =  1.3398019E-03     *Ei/E0 =  3.6719129E-07
 Equilibrium established after     2 iterations                05/18/26 14:35:44

 BEGIN implicit statics  step      4 t= 4.0000E-01             05/18/26 14:35:47
       4 t 3.0000E-01 dt 1.00E-01 begin thermal step           05/18/26 14:35:47
 Iteration:   1     *|du|/|u| =  1.5527043E-02     *Ei/E0 =  8.9935930E-01
 Iteration:   2     *|du|/|u| =  9.3130597E-04     *Ei/E0 =  1.7785859E-07
 Equilibrium established after     2 iterations                05/18/26 14:35:52

 BEGIN implicit statics  step      5 t= 5.0000E-01             05/18/26 14:35:52
       5 t 4.0000E-01 dt 1.00E-01 begin thermal step           05/18/26 14:35:52
 Iteration:   1     *|du|/|u| =  1.6512610E-02     *Ei/E0 =  1.0000000E+00
 Iteration:   2     *|du|/|u| =  1.0673808E-03     *Ei/E0 =  2.1389027E-07
 Equilibrium established after     2 iterations                05/18/26 14:36:04
      23 t 5.0000E-01 dt 1.00E-01 write d3plot file            05/18/26 14:36:04

 BEGIN implicit statics  step      6 t= 6.0000E-01             05/18/26 14:36:04
       6 t 5.0000E-01 dt 1.00E-01 begin thermal step           05/18/26 14:36:04
 Iteration:   1     *|du|/|u| =  1.2782542E-02     *Ei/E0 =  9.5749584E-01
 Iteration:   2     *|du|/|u| =  7.4616178E-04     *Ei/E0 =  1.0462285E-07
 Equilibrium established after     2 iterations                05/18/26 14:36:19

 BEGIN implicit statics  step      7 t= 7.0000E-01             05/18/26 14:36:20
       7 t 6.0000E-01 dt 1.00E-01 begin thermal step           05/18/26 14:36:20
 Iteration:   1     *|du|/|u| =  1.5595401E-02     *Ei/E0 =  1.0000000E+00
 Iteration:   2     *|du|/|u| =  1.0779407E-03     *Ei/E0 =  1.8460460E-07
 Equilibrium established after     2 iterations                05/18/26 14:36:36

 BEGIN implicit statics  step      8 t= 8.0000E-01             05/18/26 14:36:37
       8 t 7.0000E-01 dt 1.00E-01 begin thermal step           05/18/26 14:36:37
 Iteration:   1     *|du|/|u| =  1.2728633E-02     *Ei/E0 =  9.5508916E-01
 Iteration:   2     *|du|/|u| =  7.7566256E-04     *Ei/E0 =  9.8119917E-08
 Equilibrium established after     2 iterations                05/18/26 14:36:41

 BEGIN implicit statics  step      9 t= 9.0000E-01             05/18/26 14:36:41
       9 t 8.0000E-01 dt 1.00E-01 begin thermal step           05/18/26 14:36:41
 Iteration:   1     *|du|/|u| =  1.1757653E-02     *Ei/E0 =  9.4033682E-01
 Iteration:   2     *|du|/|u| =  6.6808779E-04     *Ei/E0 =  8.4065599E-08
 Equilibrium established after     2 iterations                05/18/26 14:36:51
    
 estimated total cpu time          =     32151 sec (       8 hrs 55 mins)
 estimated cpu time to complete    =     31904 sec (       8 hrs 51 mins)
 estimated total clock time        =     11871 sec (       3 hrs 17 mins)
 estimated clock time to complete  =     11781 sec (       3 hrs 16 mins)

 BEGIN implicit statics  step     10 t= 1.0000E+00             05/18/26 14:36:54
      10 t 9.0000E-01 dt 1.00E-01 begin thermal step           05/18/26 14:36:54
 Iteration:   1     *|du|/|u| =  1.4346911E-02     *Ei/E0 =  1.0000000E+00
 Iteration:   2     *|du|/|u| =  1.0454631E-03     *Ei/E0 =  1.6028433E-07
 Equilibrium established after     2 iterations                05/18/26 14:36:58

 BEGIN implicit statics  step     11 t= 1.1000E+00             05/18/26 14:36:58
      11 t 1.0000E+00 dt 1.00E-01 begin thermal step           05/18/26 14:36:58
 Iteration:   1     *|du|/|u| =  1.2457907E-02     *Ei/E0 =  9.5446418E-01
 Iteration:   2     *|du|/|u| =  7.7543088E-04     *Ei/E0 =  1.0723297E-07
 Equilibrium established after     2 iterations                05/18/26 14:37:09
      47 t 1.1000E+00 dt 1.00E-01 write d3plot file            05/18/26 14:37:09

 BEGIN implicit statics  step     12 t= 1.2000E+00             05/18/26 14:37:09
      12 t 1.1000E+00 dt 1.00E-01 begin thermal step           05/18/26 14:37:09
 Iteration:   1     *|du|/|u| =  1.5137487E-02     *Ei/E0 =  1.0000000E+00
 Iteration:   2     *|du|/|u| =  1.2710212E-03     *Ei/E0 =  2.1240747E-07
 Equilibrium established after     2 iterations                05/18/26 14:37:13

 BEGIN implicit statics  step     13 t= 1.3000E+00             05/18/26 14:37:13
      13 t 1.2000E+00 dt 1.00E-01 begin thermal step           05/18/26 14:37:13
 Iteration:   1     *|du|/|u| =  1.3079459E-02     *Ei/E0 =  9.4796794E-01
 Iteration:   2     *|du|/|u| =  9.1880578E-04     *Ei/E0 =  1.3912601E-07
 Equilibrium established after     2 iterations                05/18/26 14:37:25

 BEGIN implicit statics  step     14 t= 1.4000E+00             05/18/26 14:37:28
      14 t 1.3000E+00 dt 1.00E-01 begin thermal step           05/18/26 14:37:28
 Iteration:   1     *|du|/|u| =  1.2410045E-02     *Ei/E0 =  9.1836682E-01
 Iteration:   2     *|du|/|u| =  8.0326767E-04     *Ei/E0 =  1.3181226E-07
 Equilibrium established after     2 iterations                05/18/26 14:37:39

 BEGIN implicit statics  step     15 t= 1.5000E+00             05/18/26 14:37:39
      15 t 1.4000E+00 dt 1.00E-01 begin thermal step           05/18/26 14:37:39
 Iteration:   1     *|du|/|u| =  1.4455787E-02     *Ei/E0 =  1.0000000E+00
 Iteration:   2     *|du|/|u| =  1.2898272E-03     *Ei/E0 =  2.4113489E-07
 Equilibrium established after     2 iterations                05/18/26 14:37:43
      63 t 1.5000E+00 dt 1.00E-01 write d3plot file            05/18/26 14:37:43

 BEGIN implicit statics  step     16 t= 1.6000E+00             05/18/26 14:37:43
      16 t 1.5000E+00 dt 1.00E-01 begin thermal step           05/18/26 14:37:43
 Iteration:   1     *|du|/|u| =  1.2979906E-02     *Ei/E0 =  9.4305904E-01
 Iteration:   2     *|du|/|u| =  9.7528235E-04     *Ei/E0 =  1.8088481E-07
 Equilibrium established after     2 iterations                05/18/26 14:37:47

 BEGIN implicit statics  step     17 t= 1.7000E+00             05/18/26 14:37:47
      17 t 1.6000E+00 dt 1.00E-01 begin thermal step           05/18/26 14:37:47
 Iteration:   1     *|du|/|u| =  1.5038183E-02     *Ei/E0 =  1.0000000E+00
 Iteration:   2     *|du|/|u| =  1.5110883E-03     *Ei/E0 =  3.1274229E-07
 Equilibrium established after     2 iterations                05/18/26 14:37:51

 BEGIN implicit statics  step     18 t= 1.8000E+00             05/18/26 14:37:51
      18 t 1.7000E+00 dt 1.00E-01 begin thermal step           05/18/26 14:37:51
 Iteration:   1     *|du|/|u| =  1.3375191E-02     *Ei/E0 =  9.3714437E-01
 Iteration:   2     *|du|/|u| =  1.0879595E-03     *Ei/E0 =  2.2140736E-07
 Equilibrium established after     2 iterations                05/18/26 14:37:55

 BEGIN implicit statics  step     19 t= 1.9000E+00             05/18/26 14:37:56
      19 t 1.8000E+00 dt 1.00E-01 begin thermal step           05/18/26 14:37:56
 Iteration:   1     *|du|/|u| =  1.2955840E-02     *Ei/E0 =  8.9559299E-01
 Iteration:   2     *|du|/|u| =  1.0194042E-03     *Ei/E0 =  2.1930070E-07
 Equilibrium established after     2 iterations                05/18/26 14:38:00

 BEGIN implicit statics  step     20 t= 2.0000E+00             05/18/26 14:38:00
      20 t 1.9000E+00 dt 1.00E-01 begin thermal step           05/18/26 14:38:00
 Iteration:   1     *|du|/|u| =  1.4387196E-02     *Ei/E0 =  9.8161578E-01
 Iteration:   2     *|du|/|u| =  1.4605156E-03     *Ei/E0 =  3.3858981E-07
 Equilibrium established after     2 iterations                05/18/26 14:38:05
      83 t 2.0000E+00 dt 1.00E-01 write d3plot file            05/18/26 14:38:05

 BEGIN implicit statics  step     21 t= 2.1000E+00             05/18/26 14:38:05
      21 t 2.0000E+00 dt 1.00E-01 begin thermal step           05/18/26 14:38:05
 Iteration:   1     *|du|/|u| =  1.3240952E-02     *Ei/E0 =  9.1596646E-01
 Iteration:   2     *|du|/|u| =  1.0800916E-03     *Ei/E0 =  2.5822485E-07
 Equilibrium established after     2 iterations                05/18/26 14:38:09

 BEGIN implicit statics  step     22 t= 2.2000E+00             05/18/26 14:38:09
      22 t 2.1000E+00 dt 1.00E-01 begin thermal step           05/18/26 14:38:09
 Iteration:   1     *|du|/|u| =  1.4734094E-02     *Ei/E0 =  1.0000000E+00
 Iteration:   2     *|du|/|u| =  1.5938029E-03     *Ei/E0 =  4.0376546E-07
 Equilibrium established after     2 iterations                05/18/26 14:38:13

 BEGIN implicit statics  step     23 t= 2.3000E+00             05/18/26 14:38:13
      23 t 2.2000E+00 dt 1.00E-01 begin thermal step           05/18/26 14:38:13
 Iteration:   1     *|du|/|u| =  1.3559152E-02     *Ei/E0 =  9.2870018E-01
 Iteration:   2     *|du|/|u| =  1.2452434E-03     *Ei/E0 =  3.1609961E-07
 Equilibrium established after     2 iterations                05/18/26 14:38:17

 BEGIN implicit statics  step     24 t= 2.4000E+00             05/18/26 14:38:17
      24 t 2.3000E+00 dt 1.00E-01 begin thermal step           05/18/26 14:38:17
 Iteration:   1     *|du|/|u| =  1.3200692E-02     *Ei/E0 =  8.7972435E-01
 Iteration:   2     *|du|/|u| =  1.1127881E-03     *Ei/E0 =  2.9390988E-07
 Equilibrium established after     2 iterations                05/18/26 14:38:21

 BEGIN implicit statics  step     25 t= 2.5000E+00             05/18/26 14:38:21
      25 t 2.4000E+00 dt 1.00E-01 begin thermal step           05/18/26 14:38:21
 Iteration:   1     *|du|/|u| =  1.4139841E-02     *Ei/E0 =  9.5406559E-01
 Iteration:   2     *|du|/|u| =  1.4715687E-03     *Ei/E0 =  3.9607927E-07
 Equilibrium established after     2 iterations                05/18/26 14:38:25
     103 t 2.5000E+00 dt 1.00E-01 write d3plot file            05/18/26 14:38:25

 BEGIN implicit statics  step     26 t= 2.6000E+00             05/18/26 14:38:25
      26 t 2.5000E+00 dt 1.00E-01 begin thermal step           05/18/26 14:38:25
 Iteration:   1     *|du|/|u| =  1.3356088E-02     *Ei/E0 =  8.8447701E-01
 Iteration:   2     *|du|/|u| =  1.2821020E-03     *Ei/E0 =  3.4638457E-07
 Equilibrium established after     2 iterations                05/18/26 14:38:29

 BEGIN implicit statics  step     27 t= 2.7000E+00             05/18/26 14:38:29
      27 t 2.6000E+00 dt 1.00E-01 begin thermal step           05/18/26 14:38:29
 Iteration:   1     *|du|/|u| =  1.4464583E-02     *Ei/E0 =  9.7321576E-01
 Iteration:   2     *|du|/|u| =  1.6405108E-03     *Ei/E0 =  4.6551438E-07
 Equilibrium established after     2 iterations                05/18/26 14:38:33

 BEGIN implicit statics  step     28 t= 2.8000E+00             05/18/26 14:38:33
      28 t 2.7000E+00 dt 1.00E-01 begin thermal step           05/18/26 14:38:33
 Iteration:   1     *|du|/|u| =  1.3469569E-02     *Ei/E0 =  8.9924114E-01
 Iteration:   2     *|du|/|u| =  1.3175963E-03     *Ei/E0 =  4.4419711E-07
 Equilibrium established after     2 iterations                05/18/26 14:38:37

 BEGIN implicit statics  step     29 t= 2.9000E+00             05/18/26 14:38:37
      29 t 2.8000E+00 dt 1.00E-01 begin thermal step           05/18/26 14:38:37
 Iteration:   1     *|du|/|u| =  1.3198690E-02     *Ei/E0 =  8.4854706E-01
 Iteration:   2     *|du|/|u| =  1.2696464E-03     *Ei/E0 =  4.2591808E-07
 Equilibrium established after     2 iterations                05/18/26 14:38:42

 BEGIN implicit statics  step     30 t= 3.0000E+00             05/18/26 14:38:42
      30 t 2.9000E+00 dt 1.00E-01 begin thermal step           05/18/26 14:38:42
 Iteration:   1     *|du|/|u| =  1.3787815E-02     *Ei/E0 =  9.1879877E-01
 Iteration:   2     *|du|/|u| =  1.5059002E-03     *Ei/E0 =  7.3579380E-07
 Equilibrium established after     2 iterations                05/18/26 14:38:46
     123 t 3.0000E+00 dt 1.00E-01 write d3plot file            05/18/26 14:38:47

 BEGIN implicit statics  step     31 t= 3.1000E+00             05/18/26 14:38:47
      31 t 3.0000E+00 dt 1.00E-01 begin thermal step           05/18/26 14:38:47
 Iteration:   1     *|du|/|u| =  1.3170753E-02     *Ei/E0 =  8.4981188E-01
 Iteration:   2     *|du|/|u| =  1.2536360E-03     *Ei/E0 =  1.8312440E-06
 Equilibrium established after     2 iterations                05/18/26 14:38:50

 BEGIN implicit statics  step     32 t= 3.2000E+00             05/18/26 14:38:50
      32 t 3.1000E+00 dt 1.00E-01 begin thermal step           05/18/26 14:38:50
 Iteration:   1     *|du|/|u| =  1.3826240E-02     *Ei/E0 =  9.3598067E-01
 Iteration:   2     *|du|/|u| =  1.4241583E-03     *Ei/E0 =  5.5253297E-06
 Equilibrium established after     2 iterations                05/18/26 14:38:54

 BEGIN implicit statics  step     33 t= 3.3000E+00             05/18/26 14:38:54
      33 t 3.2000E+00 dt 1.00E-01 begin thermal step           05/18/26 14:38:54
 Iteration:   1     *|du|/|u| =  1.3214280E-02     *Ei/E0 =  8.6334036E-01
 Iteration:   2     *|du|/|u| =  1.3737013E-03     *Ei/E0 =  2.1629861E-05
 Equilibrium established after     2 iterations                05/18/26 14:38:59

 BEGIN implicit statics  step     34 t= 3.4000E+00             05/18/26 14:38:59
      34 t 3.3000E+00 dt 1.00E-01 begin thermal step           05/18/26 14:38:59
 Iteration:   1     *|du|/|u| =  1.3213767E-02     *Ei/E0 =  8.1559264E-01
 Iteration:   2     *|du|/|u| =  1.1541236E-03     *Ei/E0 =  1.5977049E-05
 Equilibrium established after     2 iterations                05/18/26 14:39:03

 BEGIN implicit statics  step     35 t= 3.5000E+00             05/18/26 14:39:03
      35 t 3.4000E+00 dt 1.00E-01 begin thermal step           05/18/26 14:39:03
 Iteration:   1     *|du|/|u| =  1.3344953E-02     *Ei/E0 =  8.8551427E-01
 Iteration:   2     *|du|/|u| =  1.8596639E-03     *Ei/E0 =  2.5075314E-05
 Equilibrium established after     2 iterations                05/18/26 14:39:07
     143 t 3.5000E+00 dt 1.00E-01 write d3plot file            05/18/26 14:39:07

 BEGIN implicit statics  step     36 t= 3.6000E+00             05/18/26 14:39:07
      36 t 3.5000E+00 dt 1.00E-01 begin thermal step           05/18/26 14:39:07
 Iteration:   1     *|du|/|u| =  1.2951914E-02     *Ei/E0 =  8.1875250E-01
 Iteration:   2     *|du|/|u| =  1.1813318E-03     *Ei/E0 =  3.4185257E-05
 Equilibrium established after     2 iterations                05/18/26 14:39:11

 BEGIN implicit statics  step     37 t= 3.7000E+00             05/18/26 14:39:11
      37 t 3.6000E+00 dt 1.00E-01 begin thermal step           05/18/26 14:39:11
 Iteration:   1     *|du|/|u| =  1.3156764E-02     *Ei/E0 =  9.0493576E-01
 Iteration:   2     *|du|/|u| =  1.6533037E-03     *Ei/E0 =  1.1331309E-04
 Equilibrium established after     2 iterations                05/18/26 14:39:16

 BEGIN implicit statics  step     38 t= 3.8000E+00             05/18/26 14:39:16
      38 t 3.7000E+00 dt 1.00E-01 begin thermal step           05/18/26 14:39:16
 Iteration:   1     *|du|/|u| =  1.3057630E-02     *Ei/E0 =  8.3581116E-01
 Iteration:   2     *|du|/|u| =  1.3798620E-03     *Ei/E0 =  1.2525120E-04
 Equilibrium established after     2 iterations                05/18/26 14:39:20

 BEGIN implicit statics  step     39 t= 3.9000E+00             05/18/26 14:39:20
      39 t 3.8000E+00 dt 1.00E-01 begin thermal step           05/18/26 14:39:20
 Iteration:   1     *|du|/|u| =  1.3378633E-02     *Ei/E0 =  7.8979675E-01
 Iteration:   2     *|du|/|u| =  1.5265083E-03     *Ei/E0 =  1.5240354E-04
 Equilibrium established after     2 iterations                05/18/26 14:39:24

 BEGIN implicit statics  step     40 t= 4.0000E+00             05/18/26 14:39:24
      40 t 3.9000E+00 dt 1.00E-01 begin thermal step           05/18/26 14:39:24
 Iteration:   1     *|du|/|u| =  1.2816505E-02     *Ei/E0 =  8.6115572E-01
 Iteration:   2     *|du|/|u| =  1.3846409E-03     *Ei/E0 =  2.6741856E-04
 Equilibrium established after     2 iterations                05/18/26 14:39:28
     163 t 4.0000E+00 dt 1.00E-01 write d3plot file            05/18/26 14:39:28

 BEGIN implicit statics  step     41 t= 4.1000E+00             05/18/26 14:39:28
      41 t 4.0000E+00 dt 1.00E-01 begin thermal step           05/18/26 14:39:28
 Iteration:   1     *|du|/|u| =  1.3381171E-02     *Ei/E0 =  7.9795467E-01
 Iteration:   2     *|du|/|u| =  1.5096549E-03     *Ei/E0 =  2.5686885E-04
 Equilibrium established after     2 iterations                05/18/26 14:39:32

 BEGIN implicit statics  step     42 t= 4.2000E+00             05/18/26 14:39:32
      42 t 4.1000E+00 dt 1.00E-01 begin thermal step           05/18/26 14:39:32
 Iteration:   1     *|du|/|u| =  1.2608765E-02     *Ei/E0 =  8.8560107E-01
 Iteration:   2     *|du|/|u| =  1.3503492E-03     *Ei/E0 =  3.1868854E-04
 Equilibrium established after     2 iterations                05/18/26 14:39:36

 BEGIN implicit statics  step     43 t= 4.3000E+00             05/18/26 14:39:36
      43 t 4.2000E+00 dt 1.00E-01 begin thermal step           05/18/26 14:39:36
 Iteration:   1     *|du|/|u| =  1.2744915E-02     *Ei/E0 =  8.1863634E-01
 Iteration:   2     *|du|/|u| =  1.2665531E-03     *Ei/E0 =  3.9344707E-04
 Equilibrium established after     2 iterations                05/18/26 14:39:40

 BEGIN implicit statics  step     44 t= 4.4000E+00             05/18/26 14:39:40
      44 t 4.3000E+00 dt 1.00E-01 begin thermal step           05/18/26 14:39:40
 Iteration:   1     *|du|/|u| =  1.2822886E-02     *Ei/E0 =  7.7620124E-01
 Iteration:   2     *|du|/|u| =  1.1297651E-03     *Ei/E0 =  4.9447864E-04
 Equilibrium established after     2 iterations                05/18/26 14:39:44

 BEGIN implicit statics  step     45 t= 4.5000E+00             05/18/26 14:39:44
      45 t 4.4000E+00 dt 1.00E-01 begin thermal step           05/18/26 14:39:44
 Iteration:   1     *|du|/|u| =  1.2288803E-02     *Ei/E0 =  8.4832228E-01
 Iteration:   2     *|du|/|u| =  1.2180037E-03     *Ei/E0 =  6.9306734E-04
 Equilibrium established after     2 iterations                05/18/26 14:39:48
     183 t 4.5000E+00 dt 1.00E-01 write d3plot file            05/18/26 14:39:48

 BEGIN implicit statics  step     46 t= 4.6000E+00             05/18/26 14:39:48
      46 t 4.5000E+00 dt 1.00E-01 begin thermal step           05/18/26 14:39:48
 Iteration:   1     *|du|/|u| =  1.2623824E-02     *Ei/E0 =  7.8801870E-01
 Iteration:   2     *|du|/|u| =  1.1617868E-03     *Ei/E0 =  7.1831507E-04
 Equilibrium established after     2 iterations                05/18/26 14:39:52

 BEGIN implicit statics  step     47 t= 4.7000E+00             05/18/26 14:39:52
      47 t 4.6000E+00 dt 1.00E-01 begin thermal step           05/18/26 14:39:52
 Iteration:   1     *|du|/|u| =  1.2053053E-02     *Ei/E0 =  8.7566115E-01
 Iteration:   2     *|du|/|u| =  1.3544354E-03     *Ei/E0 =  9.3065893E-04
 Equilibrium established after     2 iterations                05/18/26 14:39:56

 BEGIN implicit statics  step     48 t= 4.8000E+00             05/18/26 14:39:56
      48 t 4.7000E+00 dt 1.00E-01 begin thermal step           05/18/26 14:39:56
 Iteration:   1     *|du|/|u| =  1.2650060E-02     *Ei/E0 =  8.1173573E-01
 Iteration:   2     *|du|/|u| =  1.1596065E-03     *Ei/E0 =  9.3289163E-04
 Equilibrium established after     2 iterations                05/18/26 14:40:00

 BEGIN implicit statics  step     49 t= 4.9000E+00             05/18/26 14:40:00
      49 t 4.8000E+00 dt 1.00E-01 begin thermal step           05/18/26 14:40:00
 Iteration:   1     *|du|/|u| =  1.2432311E-02     *Ei/E0 =  7.7010097E-01
 Iteration:   2     *|du|/|u| =  1.2106786E-03     *Ei/E0 =  7.9972438E-04
 Equilibrium established after     2 iterations                05/18/26 14:40:04

 BEGIN implicit statics  step     50 t= 5.0000E+00             05/18/26 14:40:04
      50 t 4.9000E+00 dt 1.00E-01 begin thermal step           05/18/26 14:40:04
 Iteration:   1     *|du|/|u| =  1.1829615E-02     *Ei/E0 =  8.4271201E-01
 Iteration:   2     *|du|/|u| =  1.1910579E-03     *Ei/E0 =  8.5299836E-04
 Equilibrium established after     2 iterations                05/18/26 14:40:08

 BEGIN implicit statics  step     51 t= 5.1000E+00             05/18/26 14:40:08
      51 t 5.0000E+00 dt 1.00E-01 begin thermal step           05/18/26 14:40:08
 Iteration:   1     *|du|/|u| =  1.2234239E-02     *Ei/E0 =  7.8583520E-01
 Iteration:   2     *|du|/|u| =  1.0756481E-03     *Ei/E0 =  8.4492561E-04
 Equilibrium established after     2 iterations                05/18/26 14:40:12
     207 t 5.1000E+00 dt 1.00E-01 write d3plot file            05/18/26 14:40:12

 BEGIN implicit statics  step     52 t= 5.2000E+00             05/18/26 14:40:12
      52 t 5.1000E+00 dt 1.00E-01 begin thermal step           05/18/26 14:40:12
 Iteration:   1     *|du|/|u| =  1.1558799E-02     *Ei/E0 =  8.7506867E-01
 Iteration:   2     *|du|/|u| =  1.4479903E-03     *Ei/E0 =  1.1587969E-03
 Equilibrium established after     2 iterations                05/18/26 14:40:15

 BEGIN implicit statics  step     53 t= 5.3000E+00             05/18/26 14:40:15
      53 t 5.2000E+00 dt 1.00E-01 begin thermal step           05/18/26 14:40:15
 Iteration:   1     *|du|/|u| =  1.1931108E-02     *Ei/E0 =  8.1189939E-01
 Iteration:   2     *|du|/|u| =  9.7216846E-04     *Ei/E0 =  1.1374280E-03
 Equilibrium established after     2 iterations                05/18/26 14:40:19

 BEGIN implicit statics  step     54 t= 5.4000E+00             05/18/26 14:40:19
      54 t 5.3000E+00 dt 1.00E-01 begin thermal step           05/18/26 14:40:19
 Iteration:   1     *|du|/|u| =  1.2205974E-02     *Ei/E0 =  7.6928003E-01
 Iteration:   2     *|du|/|u| =  1.2903003E-03     *Ei/E0 =  1.0422588E-03
 Equilibrium established after     2 iterations                05/18/26 14:40:23

 BEGIN implicit statics  step     55 t= 5.5000E+00             05/18/26 14:40:23
      55 t 5.4000E+00 dt 1.00E-01 begin thermal step           05/18/26 14:40:23
 Iteration:   1     *|du|/|u| =  1.1204128E-02     *Ei/E0 =  8.4540963E-01
 Iteration:   2     *|du|/|u| =  1.0677113E-03     *Ei/E0 =  1.2088843E-03
 Equilibrium established after     2 iterations                05/18/26 14:40:27

 BEGIN implicit statics  step     56 t= 5.6000E+00             05/18/26 14:40:27
      56 t 5.5000E+00 dt 1.00E-01 begin thermal step           05/18/26 14:40:27
 Iteration:   1     *|du|/|u| =  1.1665496E-02     *Ei/E0 =  7.8595677E-01
 Iteration:   2     *|du|/|u| =  1.0492445E-03     *Ei/E0 =  1.1292272E-03
 Equilibrium established after     2 iterations                05/18/26 14:40:31
     227 t 5.6000E+00 dt 1.00E-01 write d3plot file            05/18/26 14:40:31

 BEGIN implicit statics  step     57 t= 5.7000E+00             05/18/26 14:40:31
      57 t 5.6000E+00 dt 1.00E-01 begin thermal step           05/18/26 14:40:31
 Iteration:   1     *|du|/|u| =  1.1021152E-02     *Ei/E0 =  8.7760224E-01
 Iteration:   2     *|du|/|u| =  1.5043478E-03     *Ei/E0 =  1.4001691E-03
 Equilibrium established after     2 iterations                05/18/26 14:40:35

 BEGIN implicit statics  step     58 t= 5.8000E+00             05/18/26 14:40:35
      58 t 5.7000E+00 dt 1.00E-01 begin thermal step           05/18/26 14:40:35
 Iteration:   1     *|du|/|u| =  1.1834118E-02     *Ei/E0 =  8.1328595E-01
 Iteration:   2     *|du|/|u| =  1.0048187E-03     *Ei/E0 =  1.1753126E-03
 Equilibrium established after     2 iterations                05/18/26 14:40:39

 BEGIN implicit statics  step     59 t= 5.9000E+00             05/18/26 14:40:39
      59 t 5.8000E+00 dt 1.00E-01 begin thermal step           05/18/26 14:40:39
 Iteration:   1     *|du|/|u| =  1.1243547E-02     *Ei/E0 =  7.7194347E-01
 Iteration:   2     *|du|/|u| =  1.0340212E-03     *Ei/E0 =  1.0742447E-03
 Equilibrium established after     2 iterations                05/18/26 14:40:43

 BEGIN implicit statics  step     60 t= 6.0000E+00             05/18/26 14:40:43
      60 t 5.9000E+00 dt 1.00E-01 begin thermal step           05/18/26 14:40:43
 Iteration:   1     *|du|/|u| =  1.0640136E-02     *Ei/E0 =  8.4877419E-01
 Iteration:   2     *|du|/|u| =  1.3065602E-03     *Ei/E0 =  1.2437924E-03
 Equilibrium established after     2 iterations                05/18/26 14:40:47

 BEGIN implicit statics  step     61 t= 6.1000E+00             05/18/26 14:40:47
      61 t 6.0000E+00 dt 1.00E-01 begin thermal step           05/18/26 14:40:47
 Iteration:   1     *|du|/|u| =  1.1516920E-02     *Ei/E0 =  7.9293884E-01
 Iteration:   2     *|du|/|u| =  1.0131018E-03     *Ei/E0 =  1.2369765E-03
 Equilibrium established after     2 iterations                05/18/26 14:40:51
     247 t 6.1000E+00 dt 1.00E-01 write d3plot file            05/18/26 14:40:51

 BEGIN implicit statics  step     62 t= 6.2000E+00             05/18/26 14:40:51
      62 t 6.1000E+00 dt 1.00E-01 begin thermal step           05/18/26 14:40:51
 Iteration:   1     *|du|/|u| =  1.0655926E-02     *Ei/E0 =  8.8307399E-01
 Iteration:   2     *|du|/|u| =  9.6510114E-04     *Ei/E0 =  1.4592906E-03
 Equilibrium established after     2 iterations                05/18/26 14:40:55

 BEGIN implicit statics  step     63 t= 6.3000E+00             05/18/26 14:40:55
      63 t 6.2000E+00 dt 1.00E-01 begin thermal step           05/18/26 14:40:55
 Iteration:   1     *|du|/|u| =  1.0705771E-02     *Ei/E0 =  8.2086153E-01
 Iteration:   2     *|du|/|u| =  1.1648108E-03     *Ei/E0 =  1.3478135E-03
 Equilibrium established after     2 iterations                05/18/26 14:40:59

 BEGIN implicit statics  step     64 t= 6.4000E+00             05/18/26 14:40:59
      64 t 6.3000E+00 dt 1.00E-01 begin thermal step           05/18/26 14:40:59
 Iteration:   1     *|du|/|u| =  1.1140720E-02     *Ei/E0 =  7.7857960E-01
 Iteration:   2     *|du|/|u| =  1.0541051E-03     *Ei/E0 =  1.2970820E-03
 Equilibrium established after     2 iterations                05/18/26 14:41:03

 BEGIN implicit statics  step     65 t= 6.5000E+00             05/18/26 14:41:03
      65 t 6.4000E+00 dt 1.00E-01 begin thermal step           05/18/26 14:41:03
 Iteration:   1     *|du|/|u| =  1.0112617E-02     *Ei/E0 =  8.5522411E-01
 Iteration:   2     *|du|/|u| =  1.1905807E-03     *Ei/E0 =  1.4775245E-03
 Equilibrium established after     2 iterations                05/18/26 14:41:07

 BEGIN implicit statics  step     66 t= 6.6000E+00             05/18/26 14:41:07
      66 t 6.5000E+00 dt 1.00E-01 begin thermal step           05/18/26 14:41:07
 Iteration:   1     *|du|/|u| =  1.0789069E-02     *Ei/E0 =  7.9609522E-01
 Iteration:   2     *|du|/|u| =  1.1451638E-03     *Ei/E0 =  1.3528126E-03
 Equilibrium established after     2 iterations                05/18/26 14:41:11
     267 t 6.6000E+00 dt 1.00E-01 write d3plot file            05/18/26 14:41:11

 BEGIN implicit statics  step     67 t= 6.7000E+00             05/18/26 14:41:11
      67 t 6.6000E+00 dt 1.00E-01 begin thermal step           05/18/26 14:41:11
 Iteration:   1     *|du|/|u| =  1.0111756E-02     *Ei/E0 =  8.8815447E-01
 Iteration:   2     *|du|/|u| =  1.0315814E-03     *Ei/E0 =  1.6112485E-03
 Equilibrium established after     2 iterations                05/18/26 14:41:16

 BEGIN implicit statics  step     68 t= 6.8000E+00             05/18/26 14:41:16
      68 t 6.7000E+00 dt 1.00E-01 begin thermal step           05/18/26 14:41:16
 Iteration:   1     *|du|/|u| =  1.0564759E-02     *Ei/E0 =  8.2540676E-01
 Iteration:   2     *|du|/|u| =  1.0908327E-03     *Ei/E0 =  1.4595283E-03
 Equilibrium established after     2 iterations                05/18/26 14:41:20

 BEGIN implicit statics  step     69 t= 6.9000E+00             05/18/26 14:41:20
      69 t 6.8000E+00 dt 1.00E-01 begin thermal step           05/18/26 14:41:20
 Iteration:   1     *|du|/|u| =  1.0081710E-02     *Ei/E0 =  7.8868252E-01
 Iteration:   2     *|du|/|u| =  1.0138632E-03     *Ei/E0 =  1.3332005E-03
 Equilibrium established after     2 iterations                05/18/26 14:41:25

 BEGIN implicit statics  step     70 t= 7.0000E+00             05/18/26 14:41:26
      70 t 6.9000E+00 dt 1.00E-01 begin thermal step           05/18/26 14:41:26
 Iteration:   1     *|du|/|u| =  9.8128343E-03     *Ei/E0 =  8.6439434E-01
 Iteration:   2     *|du|/|u| =  1.0826108E-03     *Ei/E0 =  1.6202948E-03
 Equilibrium established after     2 iterations                05/18/26 14:41:30

 BEGIN implicit statics  step     71 t= 7.1000E+00             05/18/26 14:41:30
      71 t 7.0000E+00 dt 1.00E-01 begin thermal step           05/18/26 14:41:30
 Iteration:   1     *|du|/|u| =  1.0322093E-02     *Ei/E0 =  8.0441633E-01
 Iteration:   2     *|du|/|u| =  1.0084275E-03     *Ei/E0 =  1.3463906E-03
 Equilibrium established after     2 iterations                05/18/26 14:41:35
     287 t 7.1000E+00 dt 1.00E-01 write d3plot file            05/18/26 14:41:35

 BEGIN implicit statics  step     72 t= 7.2000E+00             05/18/26 14:41:35
      72 t 7.1000E+00 dt 1.00E-01 begin thermal step           05/18/26 14:41:35
 Iteration:   1     *|du|/|u| =  9.7209951E-03     *Ei/E0 =  8.9967197E-01
 Iteration:   2     *|du|/|u| =  8.8870080E-04     *Ei/E0 =  1.6297721E-03
 Equilibrium established after     2 iterations                05/18/26 14:41:39

 BEGIN implicit statics  step     73 t= 7.3000E+00             05/18/26 14:41:39
      73 t 7.2000E+00 dt 1.00E-01 begin thermal step           05/18/26 14:41:39
 Iteration:   1     *|du|/|u| =  9.8270295E-03     *Ei/E0 =  8.5127203E-01
 Iteration:   2     *|du|/|u| =  1.1596047E-03     *Ei/E0 =  1.5414770E-03
 Equilibrium established after     2 iterations                05/18/26 14:41:44

 BEGIN implicit statics  step     74 t= 7.4000E+00             05/18/26 14:41:44
      74 t 7.3000E+00 dt 1.00E-01 begin thermal step           05/18/26 14:41:44
 Iteration:   1     *|du|/|u| =  9.8510174E-03     *Ei/E0 =  7.9616428E-01
 Iteration:   2     *|du|/|u| =  9.9823162E-04     *Ei/E0 =  1.3616347E-03
 Equilibrium established after     2 iterations                05/18/26 14:41:48

 BEGIN implicit statics  step     75 t= 7.5000E+00             05/18/26 14:41:48
      75 t 7.4000E+00 dt 1.00E-01 begin thermal step           05/18/26 14:41:48
 Iteration:   1     *|du|/|u| =  9.6488369E-03     *Ei/E0 =  8.7272658E-01
 Iteration:   2     *|du|/|u| =  9.8575194E-04     *Ei/E0 =  1.7121814E-03
 Equilibrium established after     2 iterations                05/18/26 14:41:52

 BEGIN implicit statics  step     76 t= 7.6000E+00             05/18/26 14:41:52
      76 t 7.5000E+00 dt 1.00E-01 begin thermal step           05/18/26 14:41:52
 Iteration:   1     *|du|/|u| =  9.3045835E-03     *Ei/E0 =  8.1486744E-01
 Iteration:   2     *|du|/|u| =  9.4812632E-04     *Ei/E0 =  1.5173454E-03
 Equilibrium established after     2 iterations                05/18/26 14:41:57
     307 t 7.6000E+00 dt 1.00E-01 write d3plot file            05/18/26 14:41:58

 BEGIN implicit statics  step     77 t= 7.7000E+00             05/18/26 14:41:58
      77 t 7.6000E+00 dt 1.00E-01 begin thermal step           05/18/26 14:41:58
 Iteration:   1     *|du|/|u| =  9.4377917E-03     *Ei/E0 =  9.0370216E-01
 Iteration:   2     *|du|/|u| =  1.2390562E-03     *Ei/E0 =  1.8504321E-03
 Equilibrium established after     2 iterations                05/18/26 14:42:03

 BEGIN implicit statics  step     78 t= 7.8000E+00             05/18/26 14:42:04
      78 t 7.7000E+00 dt 1.00E-01 begin thermal step           05/18/26 14:42:04
 Iteration:   1     *|du|/|u| =  9.3161085E-03     *Ei/E0 =  8.4405100E-01
 Iteration:   2     *|du|/|u| =  9.6385697E-04     *Ei/E0 =  1.6910270E-03
 Equilibrium established after     2 iterations                05/18/26 14:42:08

 BEGIN implicit statics  step     79 t= 7.9000E+00             05/18/26 14:42:09
      79 t 7.8000E+00 dt 1.00E-01 begin thermal step           05/18/26 14:42:09
 Iteration:   1     *|du|/|u| =  9.5407994E-03     *Ei/E0 =  7.9853500E-01
 Iteration:   2     *|du|/|u| =  9.9412584E-04     *Ei/E0 =  1.4859116E-03
 Equilibrium established after     2 iterations                05/18/26 14:42:14

 BEGIN implicit statics  step     80 t= 8.0000E+00             05/18/26 14:42:14
      80 t 7.9000E+00 dt 1.00E-01 begin thermal step           05/18/26 14:42:14
 Iteration:   1     *|du|/|u| =  8.8863097E-03     *Ei/E0 =  8.8306809E-01
 Iteration:   2     *|du|/|u| =  1.2195746E-03     *Ei/E0 =  1.8165519E-03
 Equilibrium established after     2 iterations                05/18/26 14:42:21

 BEGIN implicit statics  step     81 t= 8.1000E+00             05/18/26 14:42:21
      81 t 8.0000E+00 dt 1.00E-01 begin thermal step           05/18/26 14:42:21
 Iteration:   1     *|du|/|u| =  9.5142411E-03     *Ei/E0 =  8.2218145E-01
 Iteration:   2     *|du|/|u| =  9.9596086E-04     *Ei/E0 =  1.6227500E-03
 Equilibrium established after     2 iterations                05/18/26 14:42:26
     327 t 8.1000E+00 dt 1.00E-01 write d3plot file            05/18/26 14:42:27

 BEGIN implicit statics  step     82 t= 8.2000E+00             05/18/26 14:42:27
      82 t 8.1000E+00 dt 1.00E-01 begin thermal step           05/18/26 14:42:27
 Iteration:   1     *|du|/|u| =  8.6954884E-03     *Ei/E0 =  9.1776802E-01
 Iteration:   2     *|du|/|u| =  1.4495977E-03     *Ei/E0 =  2.0007675E-03
 Equilibrium established after     2 iterations                05/18/26 14:42:33

 BEGIN implicit statics  step     83 t= 8.3000E+00             05/18/26 14:42:33
      83 t 8.2000E+00 dt 1.00E-01 begin thermal step           05/18/26 14:42:33
 Iteration:   1     *|du|/|u| =  9.6521416E-03     *Ei/E0 =  8.5565151E-01
 Iteration:   2     *|du|/|u| =  1.0608598E-03     *Ei/E0 =  1.8038350E-03
 Equilibrium established after     2 iterations                05/18/26 14:42:40

 BEGIN implicit statics  step     84 t= 8.4000E+00             05/18/26 14:42:40
      84 t 8.3000E+00 dt 1.00E-01 begin thermal step           05/18/26 14:42:40
 Iteration:   1     *|du|/|u| =  9.0206555E-03     *Ei/E0 =  8.1404993E-01
 Iteration:   2     *|du|/|u| =  9.2661360E-04     *Ei/E0 =  1.6242623E-03
 Equilibrium established after     2 iterations                05/18/26 14:42:44

 BEGIN implicit statics  step     85 t= 8.5000E+00             05/18/26 14:42:44
      85 t 8.4000E+00 dt 1.00E-01 begin thermal step           05/18/26 14:42:44
 Iteration:   1     *|du|/|u| =  8.7178133E-03     *Ei/E0 =  8.9058557E-01
 Iteration:   2     *|du|/|u| =  1.1367208E-03     *Ei/E0 =  1.9216165E-03
 Equilibrium established after     2 iterations                05/18/26 14:42:48

 BEGIN implicit statics  step     86 t= 8.6000E+00             05/18/26 14:42:49
      86 t 8.5000E+00 dt 1.00E-01 begin thermal step           05/18/26 14:42:49
 Iteration:   1     *|du|/|u| =  9.1251728E-03     *Ei/E0 =  8.2575367E-01
 Iteration:   2     *|du|/|u| =  1.0570214E-03     *Ei/E0 =  1.6837124E-03
 Equilibrium established after     2 iterations                05/18/26 14:42:55
     347 t 8.6000E+00 dt 1.00E-01 write d3plot file            05/18/26 14:42:55

 BEGIN implicit statics  step     87 t= 8.7000E+00             05/18/26 14:42:55
      87 t 8.6000E+00 dt 1.00E-01 begin thermal step           05/18/26 14:42:55
 Iteration:   1     *|du|/|u| =  8.2592868E-03     *Ei/E0 =  9.1669467E-01
 Iteration:   2     *|du|/|u| =  1.2703357E-03     *Ei/E0 =  2.0898001E-03
 Equilibrium established after     2 iterations                05/18/26 14:42:59

 BEGIN implicit statics  step     88 t= 8.8000E+00             05/18/26 14:42:59
      88 t 8.7000E+00 dt 1.00E-01 begin thermal step           05/18/26 14:42:59
 Iteration:   1     *|du|/|u| =  9.3330638E-03     *Ei/E0 =  8.5400304E-01
 Iteration:   2     *|du|/|u| =  1.0511774E-03     *Ei/E0 =  1.9248201E-03
 Equilibrium established after     2 iterations                05/18/26 14:43:06

 BEGIN implicit statics  step     89 t= 8.9000E+00             05/18/26 14:43:06
      89 t 8.8000E+00 dt 1.00E-01 begin thermal step           05/18/26 14:43:06
 Iteration:   1     *|du|/|u| =  8.8994090E-03     *Ei/E0 =  8.1198773E-01
 Iteration:   2     *|du|/|u| =  1.0281082E-03     *Ei/E0 =  1.7795177E-03
 Equilibrium established after     2 iterations                05/18/26 14:43:12

 BEGIN implicit statics  step     90 t= 9.0000E+00             05/18/26 14:43:12
      90 t 8.9000E+00 dt 1.00E-01 begin thermal step           05/18/26 14:43:12
 Iteration:   1     *|du|/|u| =  8.1620046E-03     *Ei/E0 =  8.9079693E-01
 Iteration:   2     *|du|/|u| =  1.0227262E-03     *Ei/E0 =  2.1050510E-03
 Equilibrium established after     2 iterations                05/18/26 14:43:16

 BEGIN implicit statics  step     91 t= 9.1000E+00             05/18/26 14:43:16
      91 t 9.0000E+00 dt 1.00E-01 begin thermal step           05/18/26 14:43:16
 Iteration:   1     *|du|/|u| =  8.2335321E-03     *Ei/E0 =  8.3165319E-01
 Iteration:   2     *|du|/|u| =  9.9938427E-04     *Ei/E0 =  1.8753110E-03
 Equilibrium established after     2 iterations                05/18/26 14:43:24
     367 t 9.1000E+00 dt 1.00E-01 write d3plot file            05/18/26 14:43:24

 BEGIN implicit statics  step     92 t= 9.2000E+00             05/18/26 14:43:24
      92 t 9.1000E+00 dt 1.00E-01 begin thermal step           05/18/26 14:43:24
 Iteration:   1     *|du|/|u| =  8.0156212E-03     *Ei/E0 =  9.2188757E-01
 Iteration:   2     *|du|/|u| =  1.3031420E-03     *Ei/E0 =  2.2411510E-03
 Equilibrium established after     2 iterations                05/18/26 14:43:30

 BEGIN implicit statics  step     93 t= 9.3000E+00             05/18/26 14:43:30
      93 t 9.2000E+00 dt 1.00E-01 begin thermal step           05/18/26 14:43:30
 Iteration:   1     *|du|/|u| =  8.7623320E-03     *Ei/E0 =  8.6079674E-01
 Iteration:   2     *|du|/|u| =  9.7715689E-04     *Ei/E0 =  2.0454236E-03
 Equilibrium established after     2 iterations                05/18/26 14:43:34

 BEGIN implicit statics  step     94 t= 9.4000E+00             05/18/26 14:43:35
      94 t 9.3000E+00 dt 1.00E-01 begin thermal step           05/18/26 14:43:35
 Iteration:   1     *|du|/|u| =  8.7367792E-03     *Ei/E0 =  8.1532946E-01
 Iteration:   2     *|du|/|u| =  1.0274354E-03     *Ei/E0 =  1.9277464E-03
 Equilibrium established after     2 iterations                05/18/26 14:43:41

 BEGIN implicit statics  step     95 t= 9.5000E+00             05/18/26 14:43:41
      95 t 9.4000E+00 dt 1.00E-01 begin thermal step           05/18/26 14:43:41
 Iteration:   1     *|du|/|u| =  7.8251596E-03     *Ei/E0 =  8.9701351E-01
 Iteration:   2     *|du|/|u| =  1.0143754E-03     *Ei/E0 =  2.2016683E-03
 Equilibrium established after     2 iterations                05/18/26 14:43:46

 BEGIN implicit statics  step     96 t= 9.6000E+00             05/18/26 14:43:46
      96 t 9.5000E+00 dt 1.00E-01 begin thermal step           05/18/26 14:43:46
 Iteration:   1     *|du|/|u| =  7.9394155E-03     *Ei/E0 =  8.3284937E-01
 Iteration:   2     *|du|/|u| =  9.9874507E-04     *Ei/E0 =  1.9866052E-03
 Equilibrium established after     2 iterations                05/18/26 14:43:51
     387 t 9.6000E+00 dt 1.00E-01 write d3plot file            05/18/26 14:43:51

 BEGIN implicit statics  step     97 t= 9.7000E+00             05/18/26 14:43:51
      97 t 9.6000E+00 dt 1.00E-01 begin thermal step           05/18/26 14:43:51
 Iteration:   1     *|du|/|u| =  8.1196230E-03     *Ei/E0 =  9.3345813E-01
 Iteration:   2     *|du|/|u| =  1.0708624E-03     *Ei/E0 =  2.4267615E-03
 Equilibrium established after     2 iterations                05/18/26 14:43:59

 BEGIN implicit statics  step     98 t= 9.8000E+00             05/18/26 14:43:59
      98 t 9.7000E+00 dt 1.00E-01 begin thermal step           05/18/26 14:43:59
 Iteration:   1     *|du|/|u| =  7.9767632E-03     *Ei/E0 =  8.6733130E-01
 Iteration:   2     *|du|/|u| =  1.0021724E-03     *Ei/E0 =  2.1631602E-03
 Equilibrium established after     2 iterations                05/18/26 14:44:05

 BEGIN implicit statics  step     99 t= 9.9000E+00             05/18/26 14:44:06
      99 t 9.8000E+00 dt 1.00E-01 begin thermal step           05/18/26 14:44:06
 Iteration:   1     *|du|/|u| =  7.7987985E-03     *Ei/E0 =  8.2185528E-01
 Iteration:   2     *|du|/|u| =  9.7179341E-04     *Ei/E0 =  2.0158703E-03
 Equilibrium established after     2 iterations                05/18/26 14:44:11

 BEGIN implicit statics  step    100 t= 1.0000E+01             05/18/26 14:44:11
     100 t 9.9000E+00 dt 1.00E-01 begin thermal step           05/18/26 14:44:11
 Iteration:   1     *|du|/|u| =  8.2970041E-03     *Ei/E0 =  9.0043053E-01
 Iteration:   2     *|du|/|u| =  9.8662025E-04     *Ei/E0 =  2.3432186E-03
 Equilibrium established after     2 iterations                05/18/26 14:44:16

 BEGIN implicit statics  step    101 t= 1.0100E+01             05/18/26 14:44:17
     101 t 1.0000E+01 dt 1.00E-01 begin thermal step           05/18/26 14:44:17
 Iteration:   1     *|du|/|u| =  7.4696722E-03     *Ei/E0 =  8.3858094E-01
 Iteration:   2     *|du|/|u| =  9.9133787E-04     *Ei/E0 =  2.1200931E-03
 Equilibrium established after     2 iterations                05/18/26 14:44:22
     407 t 1.0100E+01 dt 1.00E-01 write d3plot file            05/18/26 14:44:22

 BEGIN implicit statics  step    102 t= 1.0200E+01             05/18/26 14:44:23
     102 t 1.0100E+01 dt 1.00E-01 begin thermal step           05/18/26 14:44:23
 Iteration:   1     *|du|/|u| =  7.4002365E-03     *Ei/E0 =  9.3166699E-01
 Iteration:   2     *|du|/|u| =  1.1399180E-03     *Ei/E0 =  2.5830324E-03
 Equilibrium established after     2 iterations                05/18/26 14:44:26

 BEGIN implicit statics  step    103 t= 1.0300E+01             05/18/26 14:44:27
     103 t 1.0200E+01 dt 1.00E-01 begin thermal step           05/18/26 14:44:27
 Iteration:   1     *|du|/|u| =  7.6065764E-03     *Ei/E0 =  8.6701990E-01
 Iteration:   2     *|du|/|u| =  9.9182985E-04     *Ei/E0 =  2.3374049E-03
 Equilibrium established after     2 iterations                05/18/26 14:44:34

 BEGIN implicit statics  step    104 t= 1.0400E+01             05/18/26 14:44:34
     104 t 1.0300E+01 dt 1.00E-01 begin thermal step           05/18/26 14:44:34
 Iteration:   1     *|du|/|u| =  7.7570431E-03     *Ei/E0 =  8.2757161E-01
 Iteration:   2     *|du|/|u| =  1.0685323E-03     *Ei/E0 =  2.1089875E-03
 Equilibrium established after     2 iterations                05/18/26 14:44:40

 BEGIN implicit statics  step    105 t= 1.0500E+01             05/18/26 14:44:40
     105 t 1.0400E+01 dt 1.00E-01 begin thermal step           05/18/26 14:44:40
 Iteration:   1     *|du|/|u| =  7.5797938E-03     *Ei/E0 =  9.0307021E-01
 Iteration:   2     *|du|/|u| =  9.5112129E-04     *Ei/E0 =  2.4478685E-03
 Equilibrium established after     2 iterations                05/18/26 14:44:48

 BEGIN implicit statics  step    106 t= 1.0600E+01             05/18/26 14:44:48
     106 t 1.0500E+01 dt 1.00E-01 begin thermal step           05/18/26 14:44:48
 Iteration:   1     *|du|/|u| =  7.6335313E-03     *Ei/E0 =  8.4344936E-01
 Iteration:   2     *|du|/|u| =  1.0147568E-03     *Ei/E0 =  2.2195734E-03
 Equilibrium established after     2 iterations                05/18/26 14:44:53
     427 t 1.0600E+01 dt 1.00E-01 write d3plot file            05/18/26 14:44:53

 BEGIN implicit statics  step    107 t= 1.0700E+01             05/18/26 14:44:53
     107 t 1.0600E+01 dt 1.00E-01 begin thermal step           05/18/26 14:44:53
 Iteration:   1     *|du|/|u| =  7.0929161E-03     *Ei/E0 =  9.2944342E-01
 Iteration:   2     *|du|/|u| =  1.1161470E-03     *Ei/E0 =  2.7571289E-03
 Equilibrium established after     2 iterations                05/18/26 14:44:59

 BEGIN implicit statics  step    108 t= 1.0800E+01             05/18/26 14:44:59
     108 t 1.0700E+01 dt 1.00E-01 begin thermal step           05/18/26 14:44:59
 Iteration:   1     *|du|/|u| =  7.6984272E-03     *Ei/E0 =  8.7103193E-01
 Iteration:   2     *|du|/|u| =  1.0321981E-03     *Ei/E0 =  2.4323045E-03
 Equilibrium established after     2 iterations                05/18/26 14:45:05

 BEGIN implicit statics  step    109 t= 1.0900E+01             05/18/26 14:45:06
     109 t 1.0800E+01 dt 1.00E-01 begin thermal step           05/18/26 14:45:06
 Iteration:   1     *|du|/|u| =  7.6550869E-03     *Ei/E0 =  8.3648282E-01
 Iteration:   2     *|du|/|u| =  9.8538141E-04     *Ei/E0 =  2.2375367E-03
 Equilibrium established after     2 iterations                05/18/26 14:45:15

 BEGIN implicit statics  step    110 t= 1.1000E+01             05/18/26 14:45:15
     110 t 1.0900E+01 dt 1.00E-01 begin thermal step           05/18/26 14:45:15
 Iteration:   1     *|du|/|u| =  6.9254514E-03     *Ei/E0 =  9.1130401E-01
 Iteration:   2     *|du|/|u| =  1.0190209E-03     *Ei/E0 =  2.5559793E-03
 Equilibrium established after     2 iterations                05/18/26 14:45:29

 BEGIN implicit statics  step    111 t= 1.1100E+01             05/18/26 14:45:31
     111 t 1.1000E+01 dt 1.00E-01 begin thermal step           05/18/26 14:45:31
 Iteration:   1     *|du|/|u| =  7.3173461E-03     *Ei/E0 =  8.4629550E-01
 Iteration:   2     *|du|/|u| =  1.0026843E-03     *Ei/E0 =  2.3441720E-03
 Equilibrium established after     2 iterations                05/18/26 14:45:42
     447 t 1.1100E+01 dt 1.00E-01 write d3plot file            05/18/26 14:45:43

 BEGIN implicit statics  step    112 t= 1.1200E+01             05/18/26 14:45:43
     112 t 1.1100E+01 dt 1.00E-01 begin thermal step           05/18/26 14:45:43
 Iteration:   1     *|du|/|u| =  7.5420439E-03     *Ei/E0 =  9.2949805E-01
 Iteration:   2     *|du|/|u| =  1.0508130E-03     *Ei/E0 =  2.7765587E-03
 Equilibrium established after     2 iterations                05/18/26 14:45:56

 BEGIN implicit statics  step    113 t= 1.1300E+01             05/18/26 14:45:57
     113 t 1.1200E+01 dt 1.00E-01 begin thermal step           05/18/26 14:45:57
 Iteration:   1     *|du|/|u| =  6.8487402E-03     *Ei/E0 =  8.7787667E-01
 Iteration:   2     *|du|/|u| =  1.0652132E-03     *Ei/E0 =  2.5926858E-03
 Equilibrium established after     2 iterations                05/18/26 14:46:06

 BEGIN implicit statics  step    114 t= 1.1400E+01             05/18/26 14:46:07
     114 t 1.1300E+01 dt 1.00E-01 begin thermal step           05/18/26 14:46:07
 Iteration:   1     *|du|/|u| =  7.5627401E-03     *Ei/E0 =  8.3715246E-01
 Iteration:   2     *|du|/|u| =  1.0618166E-03     *Ei/E0 =  2.3430979E-03
 Equilibrium established after     2 iterations                05/18/26 14:46:18

 BEGIN implicit statics  step    115 t= 1.1500E+01             05/18/26 14:46:19
     115 t 1.1400E+01 dt 1.00E-01 begin thermal step           05/18/26 14:46:19
 Iteration:   1     *|du|/|u| =  6.6174573E-03     *Ei/E0 =  9.1200881E-01
 Iteration:   2     *|du|/|u| =  9.9121722E-04     *Ei/E0 =  2.7509260E-03
 Equilibrium established after     2 iterations                05/18/26 14:46:29

 BEGIN implicit statics  step    116 t= 1.1600E+01             05/18/26 14:46:29
     116 t 1.1500E+01 dt 1.00E-01 begin thermal step           05/18/26 14:46:29
 Iteration:   1     *|du|/|u| =  7.1131364E-03     *Ei/E0 =  8.5260921E-01
 Iteration:   2     *|du|/|u| =  9.9979961E-04     *Ei/E0 =  2.4441176E-03
 Equilibrium established after     2 iterations                05/18/26 14:46:37
     467 t 1.1600E+01 dt 1.00E-01 write d3plot file            05/18/26 14:46:37

 BEGIN implicit statics  step    117 t= 1.1700E+01             05/18/26 14:46:37
     117 t 1.1600E+01 dt 1.00E-01 begin thermal step           05/18/26 14:46:37
 Iteration:   1     *|du|/|u| =  6.8919466E-03     *Ei/E0 =  9.3159974E-01
 Iteration:   2     *|du|/|u| =  1.0864469E-03     *Ei/E0 =  2.9214992E-03
 Equilibrium established after     2 iterations                05/18/26 14:46:47

 BEGIN implicit statics  step    118 t= 1.1800E+01             05/18/26 14:46:49
     118 t 1.1700E+01 dt 1.00E-01 begin thermal step           05/18/26 14:46:49
 Iteration:   1     *|du|/|u| =  6.7062036E-03     *Ei/E0 =  8.8018444E-01
 Iteration:   2     *|du|/|u| =  9.6734879E-04     *Ei/E0 =  2.7099032E-03
 Equilibrium established after     2 iterations                05/18/26 14:46:59

 BEGIN implicit statics  step    119 t= 1.1900E+01             05/18/26 14:46:59
     119 t 1.1800E+01 dt 1.00E-01 begin thermal step           05/18/26 14:46:59
 Iteration:   1     *|du|/|u| =  8.4495393E-03     *Ei/E0 =  8.3559415E-01
 Iteration:   2     *|du|/|u| =  1.2890630E-03     *Ei/E0 =  2.4108943E-03
 Equilibrium established after     2 iterations                05/18/26 14:47:12

 BEGIN implicit statics  step    120 t= 1.2000E+01             05/18/26 14:47:13
     120 t 1.1900E+01 dt 1.00E-01 begin thermal step           05/18/26 14:47:13
 Iteration:   1     *|du|/|u| =  6.5864628E-03     *Ei/E0 =  9.1657038E-01
 Iteration:   2     *|du|/|u| =  1.2161667E-03     *Ei/E0 =  2.7956464E-03
 Equilibrium established after     2 iterations                05/18/26 14:47:23

 BEGIN implicit statics  step    121 t= 1.2100E+01             05/18/26 14:47:24
     121 t 1.2000E+01 dt 1.00E-01 begin thermal step           05/18/26 14:47:24
 Iteration:   1     *|du|/|u| =  6.6714281E-03     *Ei/E0 =  8.5526355E-01
 Iteration:   2     *|du|/|u| =  9.4192469E-04     *Ei/E0 =  2.5349201E-03
 Equilibrium established after     2 iterations                05/18/26 14:47:34
     487 t 1.2100E+01 dt 1.00E-01 write d3plot file            05/18/26 14:47:35

 BEGIN implicit statics  step    122 t= 1.2200E+01             05/18/26 14:47:35
     122 t 1.2100E+01 dt 1.00E-01 begin thermal step           05/18/26 14:47:35
 Iteration:   1     *|du|/|u| =  6.5856808E-03     *Ei/E0 =  9.3209750E-01
 Iteration:   2     *|du|/|u| =  1.0815607E-03     *Ei/E0 =  2.9963133E-03
 Equilibrium established after     2 iterations                05/18/26 14:47:42

 BEGIN implicit statics  step    123 t= 1.2300E+01             05/18/26 14:47:43
     123 t 1.2200E+01 dt 1.00E-01 begin thermal step           05/18/26 14:47:43
 Iteration:   1     *|du|/|u| =  6.7785561E-03     *Ei/E0 =  8.8341852E-01
 Iteration:   2     *|du|/|u| =  1.0477728E-03     *Ei/E0 =  2.8152427E-03
 Equilibrium established after     2 iterations                05/18/26 14:47:49

 BEGIN implicit statics  step    124 t= 1.2400E+01             05/18/26 14:47:55
     124 t 1.2300E+01 dt 1.00E-01 begin thermal step           05/18/26 14:47:55
 Iteration:   1     *|du|/|u| =  6.6174418E-03     *Ei/E0 =  8.3195395E-01
 Iteration:   2     *|du|/|u| =  9.9944056E-04     *Ei/E0 =  2.5095957E-03
 Equilibrium established after     2 iterations                05/18/26 14:48:02

 BEGIN implicit statics  step    125 t= 1.2500E+01             05/18/26 14:48:03
     125 t 1.2400E+01 dt 1.00E-01 begin thermal step           05/18/26 14:48:03
 Iteration:   1     *|du|/|u| =  6.3372470E-03     *Ei/E0 =  9.2207613E-01
 Iteration:   2     *|du|/|u| =  1.0244783E-03     *Ei/E0 =  2.8366002E-03
 Equilibrium established after     2 iterations                05/18/26 14:48:09

 BEGIN implicit statics  step    126 t= 1.2600E+01             05/18/26 14:48:09
     126 t 1.2500E+01 dt 1.00E-01 begin thermal step           05/18/26 14:48:09
 Iteration:   1     *|du|/|u| =  7.0224754E-03     *Ei/E0 =  8.5880740E-01
 Iteration:   2     *|du|/|u| =  9.9885436E-04     *Ei/E0 =  2.6229307E-03
 Equilibrium established after     2 iterations                05/18/26 14:48:17
     507 t 1.2600E+01 dt 1.00E-01 write d3plot file            05/18/26 14:48:18

 BEGIN implicit statics  step    127 t= 1.2700E+01             05/18/26 14:48:18
     127 t 1.2600E+01 dt 1.00E-01 begin thermal step           05/18/26 14:48:18
 Iteration:   1     *|du|/|u| =  6.4348192E-03     *Ei/E0 =  9.3976120E-01
 Iteration:   2     *|du|/|u| =  1.2067797E-03     *Ei/E0 =  3.0899514E-03
 Equilibrium established after     2 iterations                05/18/26 14:48:24

 BEGIN implicit statics  step    128 t= 1.2800E+01             05/18/26 14:48:26
     128 t 1.2700E+01 dt 1.00E-01 begin thermal step           05/18/26 14:48:26
 Iteration:   1     *|du|/|u| =  7.0207726E-03     *Ei/E0 =  8.8820498E-01
 Iteration:   2     *|du|/|u| =  1.0540346E-03     *Ei/E0 =  2.8993029E-03
 Equilibrium established after     2 iterations                05/18/26 14:48:35

 BEGIN implicit statics  step    129 t= 1.2900E+01             05/18/26 14:48:35
     129 t 1.2800E+01 dt 1.00E-01 begin thermal step           05/18/26 14:48:35
 Iteration:   1     *|du|/|u| =  6.9409188E-03     *Ei/E0 =  8.3361399E-01
 Iteration:   2     *|du|/|u| =  1.0736469E-03     *Ei/E0 =  2.5449848E-03
 Equilibrium established after     2 iterations                05/18/26 14:48:48

 BEGIN implicit statics  step    130 t= 1.3000E+01             05/18/26 14:48:49
     130 t 1.2900E+01 dt 1.00E-01 begin thermal step           05/18/26 14:48:49
 Iteration:   1     *|du|/|u| =  6.4200727E-03     *Ei/E0 =  9.2629634E-01
 Iteration:   2     *|du|/|u| =  1.0673334E-03     *Ei/E0 =  2.9520597E-03
 Equilibrium established after     2 iterations                05/18/26 14:48:54

 BEGIN implicit statics  step    131 t= 1.3100E+01             05/18/26 14:48:54
     131 t 1.3000E+01 dt 1.00E-01 begin thermal step           05/18/26 14:48:54
 Iteration:   1     *|du|/|u| =  6.0435019E-03     *Ei/E0 =  8.6422539E-01
 Iteration:   2     *|du|/|u| =  9.6510065E-04     *Ei/E0 =  2.6794181E-03
 Equilibrium established after     2 iterations                05/18/26 14:49:05
     527 t 1.3100E+01 dt 1.00E-01 write d3plot file            05/18/26 14:49:05

 BEGIN implicit statics  step    132 t= 1.3200E+01             05/18/26 14:49:05
     132 t 1.3100E+01 dt 1.00E-01 begin thermal step           05/18/26 14:49:05
 Iteration:   1     *|du|/|u| =  6.3866037E-03     *Ei/E0 =  9.4629092E-01
 Iteration:   2     *|du|/|u| =  1.1093067E-03     *Ei/E0 =  3.1679311E-03
 Equilibrium established after     2 iterations                05/18/26 14:49:13

 BEGIN implicit statics  step    133 t= 1.3300E+01             05/18/26 14:49:15
     133 t 1.3200E+01 dt 1.00E-01 begin thermal step           05/18/26 14:49:15
 Iteration:   1     *|du|/|u| =  6.5687142E-03     *Ei/E0 =  8.9426867E-01
 Iteration:   2     *|du|/|u| =  9.9220722E-04     *Ei/E0 =  2.9947676E-03
 Equilibrium established after     2 iterations                05/18/26 14:49:19

 BEGIN implicit statics  step    134 t= 1.3400E+01             05/18/26 14:49:20
     134 t 1.3300E+01 dt 1.00E-01 begin thermal step           05/18/26 14:49:20
 Iteration:   1     *|du|/|u| =  6.3365258E-03     *Ei/E0 =  8.3909111E-01
 Iteration:   2     *|du|/|u| =  1.0225779E-03     *Ei/E0 =  2.6156562E-03
 Equilibrium established after     2 iterations                05/18/26 14:49:25

 BEGIN implicit statics  step    135 t= 1.3500E+01             05/18/26 14:49:26
     135 t 1.3400E+01 dt 1.00E-01 begin thermal step           05/18/26 14:49:26
 Iteration:   1     *|du|/|u| =  6.5997129E-03     *Ei/E0 =  9.3009133E-01
 Iteration:   2     *|du|/|u| =  9.6698678E-04     *Ei/E0 =  3.0398180E-03
 Equilibrium established after     2 iterations                05/18/26 14:49:30

 BEGIN implicit statics  step    136 t= 1.3600E+01             05/18/26 14:49:30
     136 t 1.3500E+01 dt 1.00E-01 begin thermal step           05/18/26 14:49:30
 Iteration:   1     *|du|/|u| =  6.6405626E-03     *Ei/E0 =  8.7187373E-01
 Iteration:   2     *|du|/|u| =  1.0293667E-03     *Ei/E0 =  2.7423675E-03
 Equilibrium established after     2 iterations                05/18/26 14:49:34
     547 t 1.3600E+01 dt 1.00E-01 write d3plot file            05/18/26 14:49:34

 BEGIN implicit statics  step    137 t= 1.3700E+01             05/18/26 14:49:34
     137 t 1.3600E+01 dt 1.00E-01 begin thermal step           05/18/26 14:49:34
 Iteration:   1     *|du|/|u| =  6.2403853E-03     *Ei/E0 =  9.4622254E-01
 Iteration:   2     *|du|/|u| =  1.3665812E-03     *Ei/E0 =  3.2216936E-03
 Equilibrium established after     2 iterations                05/18/26 14:49:38

 BEGIN implicit statics  step    138 t= 1.3800E+01             05/18/26 14:49:38
     138 t 1.3700E+01 dt 1.00E-01 begin thermal step           05/18/26 14:49:38
 Iteration:   1     *|du|/|u| =  7.3456068E-03     *Ei/E0 =  8.9430572E-01
 Iteration:   2     *|du|/|u| =  1.1551350E-03     *Ei/E0 =  3.1000469E-03
 Equilibrium established after     2 iterations                05/18/26 14:49:43

 BEGIN implicit statics  step    139 t= 1.3900E+01             05/18/26 14:49:44
     139 t 1.3800E+01 dt 1.00E-01 begin thermal step           05/18/26 14:49:44
 Iteration:   1     *|du|/|u| =  6.3393520E-03     *Ei/E0 =  8.3889337E-01
 Iteration:   2     *|du|/|u| =  1.0336975E-03     *Ei/E0 =  2.6815129E-03
 Equilibrium established after     2 iterations                05/18/26 14:49:49

 BEGIN implicit statics  step    140 t= 1.4000E+01             05/18/26 14:49:49
     140 t 1.3900E+01 dt 1.00E-01 begin thermal step           05/18/26 14:49:49
 Iteration:   1     *|du|/|u| =  6.2802687E-03     *Ei/E0 =  9.3625982E-01
 Iteration:   2     *|du|/|u| =  1.2721655E-03     *Ei/E0 =  3.1055008E-03
 Equilibrium established after     2 iterations                05/18/26 14:49:54

 BEGIN implicit statics  step    141 t= 1.4100E+01             05/18/26 14:49:54
     141 t 1.4000E+01 dt 1.00E-01 begin thermal step           05/18/26 14:49:54
 Iteration:   1     *|du|/|u| =  6.4362391E-03     *Ei/E0 =  8.7049608E-01
 Iteration:   2     *|du|/|u| =  1.0144309E-03     *Ei/E0 =  2.7919299E-03
 Equilibrium established after     2 iterations                05/18/26 14:49:59
     567 t 1.4100E+01 dt 1.00E-01 write d3plot file            05/18/26 14:50:00

 BEGIN implicit statics  step    142 t= 1.4200E+01             05/18/26 14:50:00
     142 t 1.4100E+01 dt 1.00E-01 begin thermal step           05/18/26 14:50:00
 Iteration:   1     *|du|/|u| =  5.9144899E-03     *Ei/E0 =  9.4502887E-01
 Iteration:   2     *|du|/|u| =  1.0980176E-03     *Ei/E0 =  3.2927206E-03
 Equilibrium established after     2 iterations                05/18/26 14:50:06

 BEGIN implicit statics  step    143 t= 1.4300E+01             05/18/26 14:50:07
     143 t 1.4200E+01 dt 1.00E-01 begin thermal step           05/18/26 14:50:07
 Iteration:   1     *|du|/|u| =  6.4387870E-03     *Ei/E0 =  8.9777049E-01
 Iteration:   2     *|du|/|u| =  1.0855563E-03     *Ei/E0 =  3.1202886E-03
 Equilibrium established after     2 iterations                05/18/26 14:50:12

 BEGIN implicit statics  step    144 t= 1.4400E+01             05/18/26 14:50:12
     144 t 1.4300E+01 dt 1.00E-01 begin thermal step           05/18/26 14:50:12
 Iteration:   1     *|du|/|u| =  6.0895072E-03     *Ei/E0 =  8.3971633E-01
 Iteration:   2     *|du|/|u| =  9.9489183E-04     *Ei/E0 =  2.7239643E-03
 Equilibrium established after     2 iterations                05/18/26 14:50:17

 BEGIN implicit statics  step    145 t= 1.4500E+01             05/18/26 14:50:17
     145 t 1.4400E+01 dt 1.00E-01 begin thermal step           05/18/26 14:50:17
 Iteration:   1     *|du|/|u| =  6.1484538E-03     *Ei/E0 =  9.3261314E-01
 Iteration:   2     *|du|/|u| =  9.2022343E-04     *Ei/E0 =  3.1894470E-03
 Equilibrium established after     2 iterations                05/18/26 14:50:23

 BEGIN implicit statics  step    146 t= 1.4600E+01             05/18/26 14:50:24
     146 t 1.4500E+01 dt 1.00E-01 begin thermal step           05/18/26 14:50:24
 Iteration:   1     *|du|/|u| =  5.7461212E-03     *Ei/E0 =  8.7302674E-01
 Iteration:   2     *|du|/|u| =  9.4731589E-04     *Ei/E0 =  2.9061782E-03
 Equilibrium established after     2 iterations                05/18/26 14:50:29
     587 t 1.4600E+01 dt 1.00E-01 write d3plot file            05/18/26 14:50:29

 BEGIN implicit statics  step    147 t= 1.4700E+01             05/18/26 14:50:29
     147 t 1.4600E+01 dt 1.00E-01 begin thermal step           05/18/26 14:50:29
 Iteration:   1     *|du|/|u| =  5.6621772E-03     *Ei/E0 =  9.5088909E-01
 Iteration:   2     *|du|/|u| =  1.1501496E-03     *Ei/E0 =  3.3591876E-03
 Equilibrium established after     2 iterations                05/18/26 14:50:37

 BEGIN implicit statics  step    148 t= 1.4800E+01             05/18/26 14:50:37
     148 t 1.4700E+01 dt 1.00E-01 begin thermal step           05/18/26 14:50:37
 Iteration:   1     *|du|/|u| =  6.7169928E-03     *Ei/E0 =  9.0098113E-01
 Iteration:   2     *|du|/|u| =  1.1021308E-03     *Ei/E0 =  3.1579491E-03
 Equilibrium established after     2 iterations                05/18/26 14:50:42

 BEGIN implicit statics  step    149 t= 1.4900E+01             05/18/26 14:50:43
     149 t 1.4800E+01 dt 1.00E-01 begin thermal step           05/18/26 14:50:43
 Iteration:   1     *|du|/|u| =  6.4843517E-03     *Ei/E0 =  8.5097849E-01
 Iteration:   2     *|du|/|u| =  1.1471116E-03     *Ei/E0 =  2.7749354E-03
 Equilibrium established after     2 iterations                05/18/26 14:50:47

 BEGIN implicit statics  step    150 t= 1.5000E+01             05/18/26 14:50:47
     150 t 1.4900E+01 dt 1.00E-01 begin thermal step           05/18/26 14:50:47
 Iteration:   1     *|du|/|u| =  5.8636613E-03     *Ei/E0 =  9.3872361E-01
 Iteration:   2     *|du|/|u| =  1.0325615E-03     *Ei/E0 =  3.2303795E-03
 Equilibrium established after     2 iterations                05/18/26 14:50:52

 BEGIN implicit statics  step    151 t= 1.5100E+01             05/18/26 14:50:52
     151 t 1.5000E+01 dt 1.00E-01 begin thermal step           05/18/26 14:50:52
 Iteration:   1     *|du|/|u| =  5.4611557E-03     *Ei/E0 =  8.7554386E-01
 Iteration:   2     *|du|/|u| =  8.8577840E-04     *Ei/E0 =  2.9414615E-03
 Equilibrium established after     2 iterations                05/18/26 14:50:58
     607 t 1.5100E+01 dt 1.00E-01 write d3plot file            05/18/26 14:50:58

 BEGIN implicit statics  step    152 t= 1.5200E+01             05/18/26 14:50:58
     152 t 1.5100E+01 dt 1.00E-01 begin thermal step           05/18/26 14:50:58
 Iteration:   1     *|du|/|u| =  5.8505688E-03     *Ei/E0 =  9.5208412E-01
 Iteration:   2     *|du|/|u| =  1.1989668E-03     *Ei/E0 =  3.3942106E-03
 Equilibrium established after     2 iterations                05/18/26 14:51:03

 BEGIN implicit statics  step    153 t= 1.5300E+01             05/18/26 14:51:03
     153 t 1.5200E+01 dt 1.00E-01 begin thermal step           05/18/26 14:51:03
 Iteration:   1     *|du|/|u| =  5.6686871E-03     *Ei/E0 =  9.0303023E-01
 Iteration:   2     *|du|/|u| =  1.0448281E-03     *Ei/E0 =  3.1919713E-03
 Equilibrium established after     2 iterations                05/18/26 14:51:06

 BEGIN implicit statics  step    154 t= 1.5400E+01             05/18/26 14:51:07
     154 t 1.5300E+01 dt 1.00E-01 begin thermal step           05/18/26 14:51:07
 Iteration:   1     *|du|/|u| =  7.0203725E-03     *Ei/E0 =  8.5056036E-01
 Iteration:   2     *|du|/|u| =  1.2029353E-03     *Ei/E0 =  2.8262195E-03
 Equilibrium established after     2 iterations                05/18/26 14:51:12

 BEGIN implicit statics  step    155 t= 1.5500E+01             05/18/26 14:51:12
     155 t 1.5400E+01 dt 1.00E-01 begin thermal step           05/18/26 14:51:12
 Iteration:   1     *|du|/|u| =  5.7257751E-03     *Ei/E0 =  9.3794345E-01
 Iteration:   2     *|du|/|u| =  9.7559508E-04     *Ei/E0 =  3.3167394E-03
 Equilibrium established after     2 iterations                05/18/26 14:51:17

 BEGIN implicit statics  step    156 t= 1.5600E+01             05/18/26 14:51:18
     156 t 1.5500E+01 dt 1.00E-01 begin thermal step           05/18/26 14:51:18
 Iteration:   1     *|du|/|u| =  6.2425106E-03     *Ei/E0 =  8.7724493E-01
 Iteration:   2     *|du|/|u| =  1.0644203E-03     *Ei/E0 =  2.9848298E-03
 Equilibrium established after     2 iterations                05/18/26 14:51:23
     627 t 1.5600E+01 dt 1.00E-01 write d3plot file            05/18/26 14:51:23

 BEGIN implicit statics  step    157 t= 1.5700E+01             05/18/26 14:51:23
     157 t 1.5600E+01 dt 1.00E-01 begin thermal step           05/18/26 14:51:23
 Iteration:   1     *|du|/|u| =  5.5848025E-03     *Ei/E0 =  9.5657140E-01
 Iteration:   2     *|du|/|u| =  1.1113755E-03     *Ei/E0 =  3.4833771E-03
 Equilibrium established after     2 iterations                05/18/26 14:51:28

 BEGIN implicit statics  step    158 t= 1.5800E+01             05/18/26 14:51:29
     158 t 1.5700E+01 dt 1.00E-01 begin thermal step           05/18/26 14:51:29
 Iteration:   1     *|du|/|u| =  5.3902651E-03     *Ei/E0 =  9.0583093E-01
 Iteration:   2     *|du|/|u| =  1.0253744E-03     *Ei/E0 =  3.2592916E-03
 Equilibrium established after     2 iterations                05/18/26 14:51:35

 BEGIN implicit statics  step    159 t= 1.5900E+01             05/18/26 14:51:35
     159 t 1.5800E+01 dt 1.00E-01 begin thermal step           05/18/26 14:51:35
 Iteration:   1     *|du|/|u| =  5.4341118E-03     *Ei/E0 =  8.5197103E-01
 Iteration:   2     *|du|/|u| =  9.0834817E-04     *Ei/E0 =  2.8984497E-03
 Equilibrium established after     2 iterations                05/18/26 14:51:41

 BEGIN implicit statics  step    160 t= 1.6000E+01             05/18/26 14:51:41
     160 t 1.5900E+01 dt 1.00E-01 begin thermal step           05/18/26 14:51:41
 Iteration:   1     *|du|/|u| =  5.4126785E-03     *Ei/E0 =  9.4155225E-01
 Iteration:   2     *|du|/|u| =  1.0300722E-03     *Ei/E0 =  3.3624547E-03
 Equilibrium established after     2 iterations                05/18/26 14:51:46

 BEGIN implicit statics  step    161 t= 1.6100E+01             05/18/26 14:51:46
     161 t 1.6000E+01 dt 1.00E-01 begin thermal step           05/18/26 14:51:46
 Iteration:   1     *|du|/|u| =  5.6884442E-03     *Ei/E0 =  8.7896750E-01
 Iteration:   2     *|du|/|u| =  9.6749369E-04     *Ei/E0 =  3.0314611E-03
 Equilibrium established after     2 iterations                05/18/26 14:51:51
     647 t 1.6100E+01 dt 1.00E-01 write d3plot file            05/18/26 14:51:52

 BEGIN implicit statics  step    162 t= 1.6200E+01             05/18/26 14:51:52
     162 t 1.6100E+01 dt 1.00E-01 begin thermal step           05/18/26 14:51:52
 Iteration:   1     *|du|/|u| =  6.6116488E-03     *Ei/E0 =  9.5723269E-01
 Iteration:   2     *|du|/|u| =  1.1448368E-03     *Ei/E0 =  3.5348972E-03
 Equilibrium established after     2 iterations                05/18/26 14:51:57

 BEGIN implicit statics  step    163 t= 1.6300E+01             05/18/26 14:51:58
     163 t 1.6200E+01 dt 1.00E-01 begin thermal step           05/18/26 14:51:58
 Iteration:   1     *|du|/|u| =  5.4717683E-03     *Ei/E0 =  9.0852794E-01
 Iteration:   2     *|du|/|u| =  9.8455018E-04     *Ei/E0 =  3.3065311E-03
 Equilibrium established after     2 iterations                05/18/26 14:52:01

 BEGIN implicit statics  step    164 t= 1.6400E+01             05/18/26 14:52:02
     164 t 1.6300E+01 dt 1.00E-01 begin thermal step           05/18/26 14:52:02
 Iteration:   1     *|du|/|u| =  5.0786228E-03     *Ei/E0 =  8.5269725E-01
 Iteration:   2     *|du|/|u| =  9.4036994E-04     *Ei/E0 =  2.9527827E-03
 Equilibrium established after     2 iterations                05/18/26 14:52:08

 BEGIN implicit statics  step    165 t= 1.6500E+01             05/18/26 14:52:08
     165 t 1.6400E+01 dt 1.00E-01 begin thermal step           05/18/26 14:52:08
 Iteration:   1     *|du|/|u| =  5.1272149E-03     *Ei/E0 =  9.4144285E-01
 Iteration:   2     *|du|/|u| =  1.0020632E-03     *Ei/E0 =  3.4245562E-03
 Equilibrium established after     2 iterations                05/18/26 14:52:13

 BEGIN implicit statics  step    166 t= 1.6600E+01             05/18/26 14:52:13
     166 t 1.6500E+01 dt 1.00E-01 begin thermal step           05/18/26 14:52:13
 Iteration:   1     *|du|/|u| =  5.7740668E-03     *Ei/E0 =  8.7896818E-01
 Iteration:   2     *|du|/|u| =  1.0178348E-03     *Ei/E0 =  3.0879318E-03
 Equilibrium established after     2 iterations                05/18/26 14:52:17
     667 t 1.6600E+01 dt 1.00E-01 write d3plot file            05/18/26 14:52:17

 BEGIN implicit statics  step    167 t= 1.6700E+01             05/18/26 14:52:17
     167 t 1.6600E+01 dt 1.00E-01 begin thermal step           05/18/26 14:52:17
 Iteration:   1     *|du|/|u| =  5.7479365E-03     *Ei/E0 =  9.5993205E-01
 Iteration:   2     *|du|/|u| =  1.1425235E-03     *Ei/E0 =  3.6025970E-03
 Equilibrium established after     2 iterations                05/18/26 14:52:23

 BEGIN implicit statics  step    168 t= 1.6800E+01             05/18/26 14:52:23
     168 t 1.6700E+01 dt 1.00E-01 begin thermal step           05/18/26 14:52:23
 Iteration:   1     *|du|/|u| =  6.2002170E-03     *Ei/E0 =  9.0699595E-01
 Iteration:   2     *|du|/|u| =  1.1258376E-03     *Ei/E0 =  3.3409612E-03
 Equilibrium established after     2 iterations                05/18/26 14:52:28

 BEGIN implicit statics  step    169 t= 1.6900E+01             05/18/26 14:52:28
     169 t 1.6800E+01 dt 1.00E-01 begin thermal step           05/18/26 14:52:28
 Iteration:   1     *|du|/|u| =  5.9719291E-03     *Ei/E0 =  8.5362773E-01
 Iteration:   2     *|du|/|u| =  1.0339902E-03     *Ei/E0 =  2.9675979E-03
 Equilibrium established after     2 iterations                05/18/26 14:52:33

 BEGIN implicit statics  step    170 t= 1.7000E+01             05/18/26 14:52:33
[...]

 BEGIN implicit statics  step    868 t= 1.1346E+02             05/19/26 02:32:58
     868 t 1.1330E+02 dt 2.00E-01 begin thermal step           05/19/26 02:32:58
 Iteration:   1     *|du|/|u| =  7.0874962E-04     *Ei/E0 =  6.3641188E-03
 Iteration:   2     *|du|/|u| =  1.7000074E-05     *Ei/E0 =  9.7420424E-07
 Equilibrium established after     2 iterations                05/19/26 02:33:02

 BEGIN implicit statics  step    869 t= 1.1366E+02             05/19/26 02:33:02
     869 t 1.1350E+02 dt 2.00E-01 begin thermal step           05/19/26 02:33:02
 Iteration:   1     *|du|/|u| =  7.0656569E-04     *Ei/E0 =  6.3299339E-03
 Iteration:   2     *|du|/|u| =  1.6888356E-05     *Ei/E0 =  9.6391177E-07
 Equilibrium established after     2 iterations                05/19/26 02:33:07
    3495 t 1.1366E+02 dt 2.00E-01 write d3plot file            05/19/26 02:33:07

 BEGIN implicit statics  step    870 t= 1.1386E+02             05/19/26 02:33:07
     870 t 1.1370E+02 dt 2.00E-01 begin thermal step           05/19/26 02:33:07
 Iteration:   1     *|du|/|u| =  7.0581208E-04     *Ei/E0 =  6.2971993E-03
 Iteration:   2     *|du|/|u| =  1.6801817E-05     *Ei/E0 =  9.5342321E-07
 Equilibrium established after     2 iterations                05/19/26 02:33:11

 BEGIN implicit statics  step    871 t= 1.1406E+02             05/19/26 02:33:11
     871 t 1.1390E+02 dt 2.00E-01 begin thermal step           05/19/26 02:33:11
 Iteration:   1     *|du|/|u| =  7.0352615E-04     *Ei/E0 =  6.2620112E-03
 Iteration:   2     *|du|/|u| =  1.6756651E-05     *Ei/E0 =  9.4394551E-07
 Equilibrium established after     2 iterations                05/19/26 02:33:15

 BEGIN implicit statics  step    872 t= 1.1426E+02             05/19/26 02:33:15
     872 t 1.1410E+02 dt 2.00E-01 begin thermal step           05/19/26 02:33:15
 Iteration:   1     *|du|/|u| =  7.0211732E-04     *Ei/E0 =  6.2296164E-03
 Iteration:   2     *|du|/|u| =  1.6669790E-05     *Ei/E0 =  9.3491591E-07
 Equilibrium established after     2 iterations                05/19/26 02:33:18
    3507 t 1.1426E+02 dt 2.00E-01 write d3plot file            05/19/26 02:33:19

 BEGIN implicit statics  step    873 t= 1.1446E+02             05/19/26 02:33:19
     873 t 1.1430E+02 dt 2.00E-01 begin thermal step           05/19/26 02:33:19
 Iteration:   1     *|du|/|u| =  6.9994699E-04     *Ei/E0 =  6.1979169E-03
 Iteration:   2     *|du|/|u| =  1.6632427E-05     *Ei/E0 =  9.2611094E-07
 Equilibrium established after     2 iterations                05/19/26 02:33:22

 BEGIN implicit statics  step    874 t= 1.1466E+02             05/19/26 02:33:22
     874 t 1.1450E+02 dt 2.00E-01 begin thermal step           05/19/26 02:33:22
 Iteration:   1     *|du|/|u| =  6.9860960E-04     *Ei/E0 =  6.1643470E-03
 Iteration:   2     *|du|/|u| =  1.6540522E-05     *Ei/E0 =  9.1633423E-07
 Equilibrium established after     2 iterations                05/19/26 02:33:26
    3515 t 1.1466E+02 dt 2.00E-01 write d3plot file            05/19/26 02:33:26

 BEGIN implicit statics  step    875 t= 1.1486E+02             05/19/26 02:33:26
     875 t 1.1470E+02 dt 2.00E-01 begin thermal step           05/19/26 02:33:26
 Iteration:   1     *|du|/|u| =  6.9695126E-04     *Ei/E0 =  6.1299638E-03
 Iteration:   2     *|du|/|u| =  1.6451340E-05     *Ei/E0 =  9.0656624E-07
 Equilibrium established after     2 iterations                05/19/26 02:33:30

 BEGIN implicit statics  step    876 t= 1.1506E+02             05/19/26 02:33:30
     876 t 1.1490E+02 dt 2.00E-01 begin thermal step           05/19/26 02:33:30
 Iteration:   1     *|du|/|u| =  6.9528874E-04     *Ei/E0 =  6.0972096E-03
 Iteration:   2     *|du|/|u| =  1.6392231E-05     *Ei/E0 =  8.9693594E-07
 Equilibrium established after     2 iterations                05/19/26 02:33:35

 BEGIN implicit statics  step    877 t= 1.1526E+02             05/19/26 02:33:35
     877 t 1.1510E+02 dt 2.00E-01 begin thermal step           05/19/26 02:33:35
 Iteration:   1     *|du|/|u| =  6.9359169E-04     *Ei/E0 =  6.0649714E-03
 Iteration:   2     *|du|/|u| =  1.6257246E-05     *Ei/E0 =  8.8703380E-07
 Equilibrium established after     2 iterations                05/19/26 02:33:39
    3527 t 1.1526E+02 dt 2.00E-01 write d3plot file            05/19/26 02:33:39

 BEGIN implicit statics  step    878 t= 1.1546E+02             05/19/26 02:33:39
     878 t 1.1530E+02 dt 2.00E-01 begin thermal step           05/19/26 02:33:39
 Iteration:   1     *|du|/|u| =  6.9246930E-04     *Ei/E0 =  6.0348201E-03
 Iteration:   2     *|du|/|u| =  1.6301795E-05     *Ei/E0 =  8.7769563E-07
 Equilibrium established after     2 iterations                05/19/26 02:33:43

 BEGIN implicit statics  step    879 t= 1.1566E+02             05/19/26 02:33:43
     879 t 1.1550E+02 dt 2.00E-01 begin thermal step           05/19/26 02:33:43
 Iteration:   1     *|du|/|u| =  6.9025785E-04     *Ei/E0 =  6.0012673E-03
 Iteration:   2     *|du|/|u| =  1.6215468E-05     *Ei/E0 =  8.6853652E-07
 Equilibrium established after     2 iterations                05/19/26 02:33:47
    3535 t 1.1566E+02 dt 2.00E-01 write d3plot file            05/19/26 02:33:47

 BEGIN implicit statics  step    880 t= 1.1586E+02             05/19/26 02:33:47
     880 t 1.1570E+02 dt 2.00E-01 begin thermal step           05/19/26 02:33:47
 Iteration:   1     *|du|/|u| =  6.8879723E-04     *Ei/E0 =  5.9694943E-03
 Iteration:   2     *|du|/|u| =  1.6148966E-05     *Ei/E0 =  8.5925478E-07
 Equilibrium established after     2 iterations                05/19/26 02:33:51

 BEGIN implicit statics  step    881 t= 1.1606E+02             05/19/26 02:33:51
     881 t 1.1590E+02 dt 2.00E-01 begin thermal step           05/19/26 02:33:51
 Iteration:   1     *|du|/|u| =  6.8736295E-04     *Ei/E0 =  5.9390307E-03
 Iteration:   2     *|du|/|u| =  1.6059351E-05     *Ei/E0 =  8.4972408E-07
 Equilibrium established after     2 iterations                05/19/26 02:33:55

 BEGIN implicit statics  step    882 t= 1.1626E+02             05/19/26 02:33:55
     882 t 1.1610E+02 dt 2.00E-01 begin thermal step           05/19/26 02:33:55
 Iteration:   1     *|du|/|u| =  6.8489599E-04     *Ei/E0 =  5.9101854E-03
 Iteration:   2     *|du|/|u| =  1.6038962E-05     *Ei/E0 =  8.4093913E-07
 Equilibrium established after     2 iterations                05/19/26 02:33:59
    3547 t 1.1626E+02 dt 2.00E-01 write d3plot file            05/19/26 02:33:59

 BEGIN implicit statics  step    883 t= 1.1646E+02             05/19/26 02:33:59
     883 t 1.1630E+02 dt 2.00E-01 begin thermal step           05/19/26 02:33:59
 Iteration:   1     *|du|/|u| =  6.8435966E-04     *Ei/E0 =  5.8771980E-03
 Iteration:   2     *|du|/|u| =  1.5850884E-05     *Ei/E0 =  8.3136430E-07
 Equilibrium established after     2 iterations                05/19/26 02:34:04

 BEGIN implicit statics  step    884 t= 1.1666E+02             05/19/26 02:34:04
     884 t 1.1650E+02 dt 2.00E-01 begin thermal step           05/19/26 02:34:04
 Iteration:   1     *|du|/|u| =  6.8269090E-04     *Ei/E0 =  5.8466779E-03
 Iteration:   2     *|du|/|u| =  1.5917818E-05     *Ei/E0 =  8.2258783E-07
 Equilibrium established after     2 iterations                05/19/26 02:34:09
    3555 t 1.1666E+02 dt 2.00E-01 write d3plot file            05/19/26 02:34:10

 BEGIN implicit statics  step    885 t= 1.1686E+02             05/19/26 02:34:10
     885 t 1.1670E+02 dt 2.00E-01 begin thermal step           05/19/26 02:34:10
 Iteration:   1     *|du|/|u| =  6.8059943E-04     *Ei/E0 =  5.8145819E-03
 Iteration:   2     *|du|/|u| =  1.5833857E-05     *Ei/E0 =  8.1405255E-07
 Equilibrium established after     2 iterations                05/19/26 02:34:13

 BEGIN implicit statics  step    886 t= 1.1706E+02             05/19/26 02:34:13
     886 t 1.1690E+02 dt 2.00E-01 begin thermal step           05/19/26 02:34:13
 Iteration:   1     *|du|/|u| =  6.7882807E-04     *Ei/E0 =  5.7862508E-03
 Iteration:   2     *|du|/|u| =  1.5749341E-05     *Ei/E0 =  8.0576318E-07
 Equilibrium established after     2 iterations                05/19/26 02:34:17

 BEGIN implicit statics  step    887 t= 1.1726E+02             05/19/26 02:34:17
     887 t 1.1710E+02 dt 2.00E-01 begin thermal step           05/19/26 02:34:17
 Iteration:   1     *|du|/|u| =  6.7810125E-04     *Ei/E0 =  5.7572259E-03
 Iteration:   2     *|du|/|u| =  1.5683380E-05     *Ei/E0 =  7.9659118E-07
 Equilibrium established after     2 iterations                05/19/26 02:34:22
    3567 t 1.1726E+02 dt 2.00E-01 write d3plot file            05/19/26 02:34:22

 BEGIN implicit statics  step    888 t= 1.1746E+02             05/19/26 02:34:22
     888 t 1.1730E+02 dt 2.00E-01 begin thermal step           05/19/26 02:34:22
 Iteration:   1     *|du|/|u| =  6.7566221E-04     *Ei/E0 =  5.7254750E-03
 Iteration:   2     *|du|/|u| =  1.5619523E-05     *Ei/E0 =  7.8833471E-07
 Equilibrium established after     2 iterations                05/19/26 02:34:26

 BEGIN implicit statics  step    889 t= 1.1766E+02             05/19/26 02:34:26
     889 t 1.1750E+02 dt 2.00E-01 begin thermal step           05/19/26 02:34:26
 Iteration:   1     *|du|/|u| =  6.7446602E-04     *Ei/E0 =  5.6947887E-03
 Iteration:   2     *|du|/|u| =  1.5550606E-05     *Ei/E0 =  7.7961463E-07
 Equilibrium established after     2 iterations                05/19/26 02:34:30
    3575 t 1.1766E+02 dt 2.00E-01 write d3plot file            05/19/26 02:34:30

 BEGIN implicit statics  step    890 t= 1.1786E+02             05/19/26 02:34:30
     890 t 1.1770E+02 dt 2.00E-01 begin thermal step           05/19/26 02:34:30
 Iteration:   1     *|du|/|u| =  6.7260187E-04     *Ei/E0 =  5.6651562E-03
 Iteration:   2     *|du|/|u| =  1.5482104E-05     *Ei/E0 =  7.7148467E-07
 Equilibrium established after     2 iterations                05/19/26 02:34:34

 BEGIN implicit statics  step    891 t= 1.1806E+02             05/19/26 02:34:34
     891 t 1.1790E+02 dt 2.00E-01 begin thermal step           05/19/26 02:34:34
 Iteration:   1     *|du|/|u| =  6.7195846E-04     *Ei/E0 =  5.6393477E-03
 Iteration:   2     *|du|/|u| =  1.5460830E-05     *Ei/E0 =  7.6335117E-07
 Equilibrium established after     2 iterations                05/19/26 02:34:38

 BEGIN implicit statics  step    892 t= 1.1826E+02             05/19/26 02:34:38
     892 t 1.1810E+02 dt 2.00E-01 begin thermal step           05/19/26 02:34:38
 Iteration:   1     *|du|/|u| =  6.6976596E-04     *Ei/E0 =  5.6055539E-03
 Iteration:   2     *|du|/|u| =  1.5372885E-05     *Ei/E0 =  7.5568635E-07
 Equilibrium established after     2 iterations                05/19/26 02:34:42
    3587 t 1.1826E+02 dt 2.00E-01 write d3plot file            05/19/26 02:34:42

 BEGIN implicit statics  step    893 t= 1.1846E+02             05/19/26 02:34:42
     893 t 1.1830E+02 dt 2.00E-01 begin thermal step           05/19/26 02:34:42
 Iteration:   1     *|du|/|u| =  6.6780433E-04     *Ei/E0 =  5.5778959E-03
 Iteration:   2     *|du|/|u| =  1.5307216E-05     *Ei/E0 =  7.4835093E-07
 Equilibrium established after     2 iterations                05/19/26 02:34:46

 BEGIN implicit statics  step    894 t= 1.1866E+02             05/19/26 02:34:46
     894 t 1.1850E+02 dt 2.00E-01 begin thermal step           05/19/26 02:34:46
 Iteration:   1     *|du|/|u| =  6.6693208E-04     *Ei/E0 =  5.5479543E-03
 Iteration:   2     *|du|/|u| =  1.5248025E-05     *Ei/E0 =  7.4034990E-07
 Equilibrium established after     2 iterations                05/19/26 02:34:51
    3595 t 1.1866E+02 dt 2.00E-01 write d3plot file            05/19/26 02:34:51

 BEGIN implicit statics  step    895 t= 1.1886E+02             05/19/26 02:34:51
     895 t 1.1870E+02 dt 2.00E-01 begin thermal step           05/19/26 02:34:51
 Iteration:   1     *|du|/|u| =  6.6477494E-04     *Ei/E0 =  5.5191127E-03
 Iteration:   2     *|du|/|u| =  1.5189616E-05     *Ei/E0 =  7.3288297E-07
 Equilibrium established after     2 iterations                05/19/26 02:34:55

 BEGIN implicit statics  step    896 t= 1.1906E+02             05/19/26 02:34:55
     896 t 1.1890E+02 dt 2.00E-01 begin thermal step           05/19/26 02:34:55
 Iteration:   1     *|du|/|u| =  6.6363915E-04     *Ei/E0 =  5.4930027E-03
 Iteration:   2     *|du|/|u| =  1.5113891E-05     *Ei/E0 =  7.2478375E-07
 Equilibrium established after     2 iterations                05/19/26 02:34:59

 BEGIN implicit statics  step    897 t= 1.1926E+02             05/19/26 02:35:00
     897 t 1.1910E+02 dt 2.00E-01 begin thermal step           05/19/26 02:35:00
 Iteration:   1     *|du|/|u| =  6.6179138E-04     *Ei/E0 =  5.4621000E-03
 Iteration:   2     *|du|/|u| =  1.5094800E-05     *Ei/E0 =  7.1824811E-07
 Equilibrium established after     2 iterations                05/19/26 02:35:04
    3607 t 1.1926E+02 dt 2.00E-01 write d3plot file            05/19/26 02:35:04

 BEGIN implicit statics  step    898 t= 1.1946E+02             05/19/26 02:35:04
     898 t 1.1930E+02 dt 2.00E-01 begin thermal step           05/19/26 02:35:04
 Iteration:   1     *|du|/|u| =  6.6067717E-04     *Ei/E0 =  5.4350280E-03
 Iteration:   2     *|du|/|u| =  1.5052123E-05     *Ei/E0 =  7.1106531E-07
 Equilibrium established after     2 iterations                05/19/26 02:35:09

 BEGIN implicit statics  step    899 t= 1.1966E+02             05/19/26 02:35:09
     899 t 1.1950E+02 dt 2.00E-01 begin thermal step           05/19/26 02:35:09
 Iteration:   1     *|du|/|u| =  6.5904875E-04     *Ei/E0 =  5.4053798E-03
 Iteration:   2     *|du|/|u| =  1.4987591E-05     *Ei/E0 =  7.0383115E-07
 Equilibrium established after     2 iterations                05/19/26 02:35:12
    3615 t 1.1966E+02 dt 2.00E-01 write d3plot file            05/19/26 02:35:12

 BEGIN implicit statics  step    900 t= 1.1996E+02             05/19/26 02:35:13
     900 t 1.1970E+02 dt 3.00E-01 begin thermal step           05/19/26 02:35:13
         t 1.2000E+02             end   thermal step soln=   1 05/19/26 02:35:14
 Iteration:   1     *|du|/|u| =  9.8407545E-04     *Ei/E0 =  1.2066710E-02
 Iteration:   2     *|du|/|u| =  2.3761884E-05     *Ei/E0 =  1.0457615E-06
 Equilibrium established after     2 iterations                05/19/26 02:35:17

 BEGIN implicit statics  step    901 t= 1.2000E+02             05/19/26 02:35:17
 Iteration:   1     *|du|/|u| =  1.3772264E-04     *Ei/E0 =  2.3162898E-04
 Iteration:   2     *|du|/|u| =  6.3886168E-06     *Ei/E0 =  4.0076697E-07
 Equilibrium established after     2 iterations                05/19/26 02:35:19
    3623 t 1.2000E+02 dt 4.15E-02 write d3plot file            05/19/26 02:35:19
 
 *** termination time reached ***
    3623 t 1.2000E+02 dt 4.15E-02 write d3dump01 file          05/19/26 02:35:19

 N o r m a l    t e r m i n a t i o n                          05/19/26 02:35:19

 Thermal dynamically allocated memory   :    1320K

 Memory required to complete solution   :    2247K
 Linear Alg dynamically allocated memory:    7559K
 Additional dynamically allocated memory:     156M
                                   Total:     167M

 T i m i n g   i n f o r m a t i o n
                        CPU(seconds)   %CPU  Clock(seconds) %Clock
  ----------------------------------------------------------------
  Keyword Processing ... 1.5237E+00    0.01     2.2957E-01    0.01
    KW Reading ......... 8.7348E-01    0.00     1.0921E-01    0.00
    KW Writing ......... 1.4365E-01    0.00     5.4949E-02    0.00
  Initialization ....... 5.1410E+00    0.02     9.7057E-01    0.03
    Init Proc Phase 1 .. 1.8932E+00    0.01     5.1949E-01    0.01
    Init Proc Phase 2 .. 2.6452E-01    0.00     3.7534E-02    0.00
  Element processing ... 6.6056E+03   26.85     8.2663E+02   22.12
    Solids ............. 6.5967E+03   26.82     8.2566E+02   22.09
    E Other ............ 5.6927E+00    0.02     7.2228E-01    0.02
  Binary databases ..... 2.1742E+01    0.09     2.7171E+00    0.07
  ASCII database ....... 1.3331E+00    0.01     1.6330E-01    0.00
  Contact algorithm .... 1.7359E+01    0.07     1.7509E+00    0.05
    Interf. ID     80085 1.7415E+00    0.01     2.3513E-01    0.01
    Interf. ID      8008 6.2602E-01    0.00     9.3165E-02    0.00
    Interf. ID     80086 1.5622E+00    0.01     4.1617E-01    0.01
    Interf. ID      8009 2.2904E+00    0.01     3.5875E-01    0.01
  Implicit ............. 1.0922E+02    0.44     1.4753E+01    0.39
  Implicit Nonlinear ... 1.6606E+03    6.75     2.8827E+02    7.71
    Imp. NL force mod .. 3.7877E+02    1.54     4.7336E+01    1.27
  Implicit Lin. Alg. ... 1.2516E+04   50.88     2.1088E+03   56.42
    Imp. LA Mtx Assemb . 1.9287E+03    7.84     2.4127E+02    6.45
    Imp. LA Factor ..... 9.4544E+03   38.44     1.6629E+03   44.49
    Imp. LA Solve ...... 1.1323E+03    4.60     2.0465E+02    5.48
  Thermal .............. 3.6395E+03   14.80     4.9054E+02   13.12
    Element processing . 1.2009E+03    4.88     1.5749E+02    4.21
    Contact ............ 1.5570E+01    0.06     1.9468E+00    0.05
    Solver ............. 9.8405E+01    0.40     1.7964E+01    0.48
    Other .............. 2.3246E+03    9.45     3.1314E+02    8.38
  Time step size ....... 6.3821E-01    0.00     3.7906E-02    0.00
  Others ............... 1.7234E+00    0.01     2.6643E-01    0.01
  Misc. 1 .............. 5.8414E+00    0.02     1.0535E+00    0.03
    Scale Masses ....... 1.4699E-01    0.00     8.2180E-02    0.00
  Misc. 3 .............. 1.1439E+00    0.00     1.2725E-01    0.00
  Misc. 4 .............. 1.0088E+01    0.04     1.4618E+00    0.04
    Timestep Init ...... 2.0900E+00    0.01     6.8415E-01    0.02
    Apply Loads ........ 1.0643E+00    0.00     1.6271E-01    0.00
    Compute exwork ..... 6.7839E-01    0.00     3.8454E-02    0.00
  ----------------------------------------------------------------
  T o t a l s            2.4598E+04  100.00     3.7378E+03  100.00

 Problem time       =    1.2000E+02
 Problem cycle      =      3623
 Total CPU time     =     24598 seconds (   6 hours 49 minutes 58 seconds)
 CPU time per zone cycle  =     441028.937 nanoseconds
 Clock time per zone cycle=      67015.055 nanoseconds

 Number of CPU's    8
 NLQ used/max     192/  192
 Start time   05/19/2026 01:33:02  
 End time     05/19/2026 02:35:19  
 Elapsed time    3737 seconds for    3623 cycles using  8 SMP threads
             (      1 hour   2 minutes 17 seconds)

 N o r m a l    t e r m i n a t i o n                          05/19/26 02:35:19
  GREAT SUCCES: LS-DYNA færdig – eksporterer geometri...
(EE) 
Fatal server error:
(EE) Server is already active for display 99
	If this server is no longer running, remove /tmp/.X99-lock
	and start again.
(EE) 

 _____________________________________________________
 |                                                   |
 |     Livermore Software Technology Corporation     |
 |                                                   |
 |                L S - P R E P O S T                |
 |                                                   |
 |    Advanced Pre- and Post-Processor for LS-DYNA   |
 |                                                   |
 |  LS-PrePost(R) 2025 R1 (v4.12) -Beta- 18Jun2024   |
 |                                                   |
 |           Ansys Copyright (C) 1999-2025           |
 |                All Rights Reserved                |
 |___________________________________________________|

 OpenGL version 2.1 Mesa 8.0.5
bgstyle fade
openc command "/home/ubuntu/dyna_pladebuk/Plade_300_150_4/BB/iter_10/export.cfile" nodialog
open d3plot "/home/ubuntu/dyna_pladebuk/Plade_300_150_4/BB/iter_10/d3plot"
Reading binary plot files
 d3plot files are 64-bit ieee format
 Total number of states = 242
 Total no. of active parts    = 3
Finished reading model
ac
ac
output append 1
output "/home/ubuntu/dyna_pladebuk/Plade_300_150_4/BB/iter_10/deform_geo.k" 241 1 1 1 1 1 0 0 0 0 0 0 0 0 0 1.000000 0 0
quit
Save Config. parameters to file /home/ubuntu/LSTC/LS-PrePost4.12/lsppconf
  GREAT SUCCES: Eksporteret: $STATE_NO = 241
  GREAT SUCCES: Iteration 10 færdig

  ALLE 10 ITERATIONER FÆRDIGE!
