 LS-DYNA SIMULERING AF VARME DER BUKKER PLADE - J. G                     
                    ls-dyna smp d R14 R14.0_515_8a12796 date 12/12/2022
