 LS-DYNA SIMULERING AF VARME DER BUKKER PLADE - J. G                     
                    ls-dyna smp d R14 R14.0_515_8a12796 date 12/12/2022


 **********************************************************************

     time =  0.0000E+00     time step =  1.0000E-01     thermal step no.=     0

     minimum temperature =    295.00000   at node    20276
     maximum temperature =    295.00000   at node    20276

*TEMPERATURE_NODE     numnode=     20276   thkshl=         0
  node   temperature      x-flux      y-flux      z-flux

       1   295.00000  0.0000E+00  0.0000E+00  0.0000E+00
       2   295.00000  0.0000E+00  0.0000E+00  0.0000E+00
       3   295.00000  0.0000E+00  0.0000E+00  0.0000E+00
       4   295.00000  0.0000E+00  0.0000E+00  0.0000E+00
       5   295.00000  0.0000E+00  0.0000E+00  0.0000E+00
       6   295.00000  0.0000E+00  0.0000E+00  0.0000E+00
       7   295.00000  0.0000E+00  0.0000E+00  0.0000E+00
       8   295.00000  0.0000E+00  0.0000E+00  0.0000E+00
       9   295.00000  0.0000E+00  0.0000E+00  0.0000E+00
      10   295.00000  0.0000E+00  0.0000E+00  0.0000E+00
      11   295.00000  0.0000E+00  0.0000E+00  0.0000E+00
      12   295.00000  0.0000E+00  0.0000E+00  0.0000E+00
      13   295.00000  0.0000E+00  0.0000E+00  0.0000E+00
      14   295.00000  0.0000E+00  0.0000E+00  0.0000E+00
      15   295.00000  0.0000E+00  0.0000E+00  0.0000E+00
      16   295.00000  0.0000E+00  0.0000E+00  0.0000E+00
      17   295.00000  0.0000E+00  0.0000E+00  0.0000E+00
      18   295.00000  0.0000E+00  0.0000E+00  0.0000E+00
      19   295.00000  0.0000E+00  0.0000E+00  0.0000E+00
      20   295.00000  0.0000E+00  0.0000E+00  0.0000E+00
      21   295.00000  0.0000E+00  0.0000E+00  0.0000E+00
      22   295.00000  0.0000E+00  0.0000E+00  0.0000E+00
      23   295.00000  0.0000E+00  0.0000E+00  0.0000E+00
      24   295.00000  0.0000E+00  0.0000E+00  0.0000E+00
      25   295.00000  0.0000E+00  0.0000E+00  0.0000E+00
      26   295.00000  0.0000E+00  0.0000E+00  0.0000E+00
      27   295.00000  0.0000E+00  0.0000E+00  0.0000E+00
      28   295.00000  0.0000E+00  0.0000E+00  0.0000E+00
      29   295.00000  0.0000E+00  0.0000E+00  0.0000E+00
      30   295.00000  0.0000E+00  0.0000E+00  0.0000E+00
      31   295.00000  0.0000E+00  0.0000E+00  0.0000E+00
      32   295.00000  0.0000E+00  0.0000E+00  0.0000E+00
      33   295.00000  0.0000E+00  0.0000E+00  0.0000E+00
      34   295.00000  0.0000E+00  0.0000E+00  0.0000E+00
      35   295.00000  0.0000E+00  0.0000E+00  0.0000E+00
      36   295.00000  0.0000E+00  0.0000E+00  0.0000E+00
      37   295.00000  0.0000E+00  0.0000E+00  0.0000E+00
      38   295.00000  0.0000E+00  0.0000E+00  0.0000E+00
      39   295.00000  0.0000E+00  0.0000E+00  0.0000E+00
      40   295.00000  0.0000E+00  0.0000E+00  0.0000E+00
      41   295.00000  0.0000E+00  0.0000E+00  0.0000E+00
      42   295.00000  0.0000E+00  0.0000E+00  0.0000E+00
      43   295.00000  0.0000E+00  0.0000E+00  0.0000E+00
      44   295.00000  0.0000E+00  0.0000E+00  0.0000E+00
      45   295.00000  0.0000E+00  0.0000E+00  0.0000E+00
      46   295.00000  0.0000E+00  0.0000E+00  0.0000E+00
      47   295.00000  0.0000E+00  0.0000E+00  0.0000E+00
      48   295.00000  0.0000E+00  0.0000E+00  0.0000E+00
      49   295.00000  0.0000E+00  0.0000E+00  0.0000E+00
      50   295.00000  0.0000E+00  0.0000E+00  0.0000E+00
      51   295.00000  0.0000E+00  0.0000E+00  0.0000E+00
      52   295.00000  0.0000E+00  0.0000E+00  0.0000E+00
      53   295.00000  0.0000E+00  0.0000E+00  0.0000E+00
      54   295.00000  0.0000E+00  0.0000E+00  0.0000E+00
      55   295.00000  0.0000E+00  0.0000E+00  0.0000E+00
      56   295.00000  0.0000E+00  0.0000E+00  0.0000E+00
      57   295.00000  0.0000E+00  0.0000E+00  0.0000E+00
      58   295.00000  0.0000E+00  0.0000E+00  0.0000E+00
      59   295.00000  0.0000E+00  0.0000E+00  0.0000E+00
      60   295.00000  0.0000E+00  0.0000E+00  0.0000E+00
      61   295.00000  0.0000E+00  0.0000E+00  0.0000E+00
      62   295.00000  0.0000E+00  0.0000E+00  0.0000E+00
      63   295.00000  0.0000E+00  0.0000E+00  0.0000E+00
      64   295.00000  0.0000E+00  0.0000E+00  0.0000E+00
      65   295.00000  0.0000E+00  0.0000E+00  0.0000E+00
      66   295.00000  0.0000E+00  0.0000E+00  0.0000E+00
      67   295.00000  0.0000E+00  0.0000E+00  0.0000E+00
      68   295.00000  0.0000E+00  0.0000E+00  0.0000E+00
      69   295.00000  0.0000E+00  0.0000E+00  0.0000E+00
      70   295.00000  0.0000E+00  0.0000E+00  0.0000E+00
      71   295.00000  0.0000E+00  0.0000E+00  0.0000E+00
      72   295.00000  0.0000E+00  0.0000E+00  0.0000E+00
      73   295.00000  0.0000E+00  0.0000E+00  0.0000E+00
      74   295.00000  0.0000E+00  0.0000E+00  0.0000E+00
      75   295.00000  0.0000E+00  0.0000E+00  0.0000E+00
      76   295.00000  0.0000E+00  0.0000E+00  0.0000E+00
      77   295.00000  0.0000E+00  0.0000E+00  0.0000E+00
      78   295.00000  0.0000E+00  0.0000E+00  0.0000E+00
      79   295.00000  0.0000E+00  0.0000E+00  0.0000E+00
      80   295.00000  0.0000E+00  0.0000E+00  0.0000E+00
      81   295.00000  0.0000E+00  0.0000E+00  0.0000E+00
      82   295.00000  0.0000E+00  0.0000E+00  0.0000E+00
      83   295.00000  0.0000E+00  0.0000E+00  0.0000E+00
      84   295.00000  0.0000E+00  0.0000E+00  0.0000E+00
      85   295.00000  0.0000E+00  0.0000E+00  0.0000E+00
      86   295.00000  0.0000E+00  0.0000E+00  0.0000E+00
      87   295.00000  0.0000E+00  0.0000E+00  0.0000E+00
      88   295.00000  0.0000E+00  0.0000E+00  0.0000E+00
      89   295.00000  0.0000E+00  0.0000E+00  0.0000E+00
      90   295.00000  0.0000E+00  0.0000E+00  0.0000E+00
      91   295.00000  0.0000E+00  0.0000E+00  0.0000E+00
      92   295.00000  0.0000E+00  0.0000E+00  0.0000E+00
      93   295.00000  0.0000E+00  0.0000E+00  0.0000E+00
      94   295.00000  0.0000E+00  0.0000E+00  0.0000E+00
      95   295.00000  0.0000E+00  0.0000E+00  0.0000E+00
      96   295.00000  0.0000E+00  0.0000E+00  0.0000E+00
      97   295.00000  0.0000E+00  0.0000E+00  0.0000E+00
      98   295.00000  0.0000E+00  0.0000E+00  0.0000E+00
      99   295.00000  0.0000E+00  0.0000E+00  0.0000E+00
     100   295.00000  0.0000E+00  0.0000E+00  0.0000E+00
     101   295.00000  0.0000E+00  0.0000E+00  0.0000E+00
     102   295.00000  0.0000E+00  0.0000E+00  0.0000E+00
     103   295.00000  0.0000E+00  0.0000E+00  0.0000E+00
     104   295.00000  0.0000E+00  0.0000E+00  0.0000E+00
     105   295.00000  0.0000E+00  0.0000E+00  0.0000E+00
     106   295.00000  0.0000E+00  0.0000E+00  0.0000E+00
     107   295.00000  0.0000E+00  0.0000E+00  0.0000E+00
     108   295.00000  0.0000E+00  0.0000E+00  0.0000E+00
     109   295.00000  0.0000E+00  0.0000E+00  0.0000E+00
     110   295.00000  0.0000E+00  0.0000E+00  0.0000E+00
     111   295.00000  0.0000E+00  0.0000E+00  0.0000E+00
     112   295.00000  0.0000E+00  0.0000E+00  0.0000E+00
     113   295.00000  0.0000E+00  0.0000E+00  0.0000E+00
     114   295.00000  0.0000E+00  0.0000E+00  0.0000E+00
     115   295.00000  0.0000E+00  0.0000E+00  0.0000E+00
     116   295.00000  0.0000E+00  0.0000E+00  0.0000E+00
     117   295.00000  0.0000E+00  0.0000E+00  0.0000E+00
     118   295.00000  0.0000E+00  0.0000E+00  0.0000E+00
     119   295.00000  0.0000E+00  0.0000E+00  0.0000E+00
     120   295.00000  0.0000E+00  0.0000E+00  0.0000E+00
     121   295.00000  0.0000E+00  0.0000E+00  0.0000E+00
     122   295.00000  0.0000E+00  0.0000E+00  0.0000E+00
     123   295.00000  0.0000E+00  0.0000E+00  0.0000E+00
     124   295.00000  0.0000E+00  0.0000E+00  0.0000E+00
     125   295.00000  0.0000E+00  0.0000E+00  0.0000E+00
     126   295.00000  0.0000E+00  0.0000E+00  0.0000E+00
     127   295.00000  0.0000E+00  0.0000E+00  0.0000E+00
     128   295.00000  0.0000E+00  0.0000E+00  0.0000E+00
     129   295.00000  0.0000E+00  0.0000E+00  0.0000E+00
     130   295.00000  0.0000E+00  0.0000E+00  0.0000E+00
     131   295.00000  0.0000E+00  0.0000E+00  0.0000E+00
     132   295.00000  0.0000E+00  0.0000E+00  0.0000E+00
     133   295.00000  0.0000E+00  0.0000E+00  0.0000E+00
     134   295.00000  0.0000E+00  0.0000E+00  0.0000E+00
     135   295.00000  0.0000E+00  0.0000E+00  0.0000E+00
     136   295.00000  0.0000E+00  0.0000E+00  0.0000E+00
     137   295.00000  0.0000E+00  0.0000E+00  0.0000E+00
     138   295.00000  0.0000E+00  0.0000E+00  0.0000E+00
     139   295.00000  0.0000E+00  0.0000E+00  0.0000E+00
     140   295.00000  0.0000E+00  0.0000E+00  0.0000E+00
     141   295.00000  0.0000E+00  0.0000E+00  0.0000E+00
     142   295.00000  0.0000E+00  0.0000E+00  0.0000E+00
     143   295.00000  0.0000E+00  0.0000E+00  0.0000E+00
     144   295.00000  0.0000E+00  0.0000E+00  0.0000E+00
     145   295.00000  0.0000E+00  0.0000E+00  0.0000E+00
     146   295.00000  0.0000E+00  0.0000E+00  0.0000E+00
     147   295.00000  0.0000E+00  0.0000E+00  0.0000E+00
     148   295.00000  0.0000E+00  0.0000E+00  0.0000E+00
     149   295.00000  0.0000E+00  0.0000E+00  0.0000E+00
     150   295.00000  0.0000E+00  0.0000E+00  0.0000E+00
     151   295.00000  0.0000E+00  0.0000E+00  0.0000E+00
     152   295.00000  0.0000E+00  0.0000E+00  0.0000E+00
     153   295.00000  0.0000E+00  0.0000E+00  0.0000E+00
     154   295.00000  0.0000E+00  0.0000E+00  0.0000E+00
     155   295.00000  0.0000E+00  0.0000E+00  0.0000E+00
     156   295.00000  0.0000E+00  0.0000E+00  0.0000E+00
     157   295.00000  0.0000E+00  0.0000E+00  0.0000E+00
     158   295.00000  0.0000E+00  0.0000E+00  0.0000E+00
     159   295.00000  0.0000E+00  0.0000E+00  0.0000E+00
     160   295.00000  0.0000E+00  0.0000E+00  0.0000E+00
     161   295.00000  0.0000E+00  0.0000E+00  0.0000E+00
     162   295.00000  0.0000E+00  0.0000E+00  0.0000E+00
     163   295.00000  0.0000E+00  0.0000E+00  0.0000E+00
     164   295.00000  0.0000E+00  0.0000E+00  0.0000E+00
     165   295.00000  0.0000E+00  0.0000E+00  0.0000E+00
     166   295.00000  0.0000E+00  0.0000E+00  0.0000E+00
     167   295.00000  0.0000E+00  0.0000E+00  0.0000E+00
     168   295.00000  0.0000E+00  0.0000E+00  0.0000E+00
     169   295.00000  0.0000E+00  0.0000E+00  0.0000E+00
     170   295.00000  0.0000E+00  0.0000E+00  0.0000E+00
     171   295.00000  0.0000E+00  0.0000E+00  0.0000E+00
     172   295.00000  0.0000E+00  0.0000E+00  0.0000E+00
     173   295.00000  0.0000E+00  0.0000E+00  0.0000E+00
     174   295.00000  0.0000E+00  0.0000E+00  0.0000E+00
     175   295.00000  0.0000E+00  0.0000E+00  0.0000E+00
     176   295.00000  0.0000E+00  0.0000E+00  0.0000E+00
     177   295.00000  0.0000E+00  0.0000E+00  0.0000E+00
     178   295.00000  0.0000E+00  0.0000E+00  0.0000E+00
     179   295.00000  0.0000E+00  0.0000E+00  0.0000E+00
     180   295.00000  0.0000E+00  0.0000E+00  0.0000E+00
     181   295.00000  0.0000E+00  0.0000E+00  0.0000E+00
     182   295.00000  0.0000E+00  0.0000E+00  0.0000E+00
     183   295.00000  0.0000E+00  0.0000E+00  0.0000E+00
     184   295.00000  0.0000E+00  0.0000E+00  0.0000E+00
     185   295.00000  0.0000E+00  0.0000E+00  0.0000E+00
     186   295.00000  0.0000E+00  0.0000E+00  0.0000E+00
     187   295.00000  0.0000E+00  0.0000E+00  0.0000E+00
     188   295.00000  0.0000E+00  0.0000E+00  0.0000E+00
     189   295.00000  0.0000E+00  0.0000E+00  0.0000E+00
     190   295.00000  0.0000E+00  0.0000E+00  0.0000E+00
     191   295.00000  0.0000E+00  0.0000E+00  0.0000E+00
     192   295.00000  0.0000E+00  0.0000E+00  0.0000E+00
     193   295.00000  0.0000E+00  0.0000E+00  0.0000E+00
     194   295.00000  0.0000E+00  0.0000E+00  0.0000E+00
     195   295.00000  0.0000E+00  0.0000E+00  0.0000E+00
     196   295.00000  0.0000E+00  0.0000E+00  0.0000E+00
     197   295.00000  0.0000E+00  0.0000E+00  0.0000E+00
     198   295.00000  0.0000E+00  0.0000E+00  0.0000E+00
     199   295.00000  0.0000E+00  0.0000E+00  0.0000E+00
     200   295.00000  0.0000E+00  0.0000E+00  0.0000E+00
     201   295.00000  0.0000E+00  0.0000E+00  0.0000E+00
     202   295.00000  0.0000E+00  0.0000E+00  0.0000E+00
     203   295.00000  0.0000E+00  0.0000E+00  0.0000E+00
     204   295.00000  0.0000E+00  0.0000E+00  0.0000E+00
     205   295.00000  0.0000E+00  0.0000E+00  0.0000E+00
     206   295.00000  0.0000E+00  0.0000E+00  0.0000E+00
     207   295.00000  0.0000E+00  0.0000E+00  0.0000E+00
     208   295.00000  0.0000E+00  0.0000E+00  0.0000E+00
     209   295.00000  0.0000E+00  0.0000E+00  0.0000E+00
     210   295.00000  0.0000E+00  0.0000E+00  0.0000E+00
     211   295.00000  0.0000E+00  0.0000E+00  0.0000E+00
     212   295.00000  0.0000E+00  0.0000E+00  0.0000E+00
     213   295.00000  0.0000E+00  0.0000E+00  0.0000E+00
     214   295.00000  0.0000E+00  0.0000E+00  0.0000E+00
     215   295.00000  0.0000E+00  0.0000E+00  0.0000E+00
     216   295.00000  0.0000E+00  0.0000E+00  0.0000E+00
     217   295.00000  0.0000E+00  0.0000E+00  0.0000E+00
     218   295.00000  0.0000E+00  0.0000E+00  0.0000E+00
     219   295.00000  0.0000E+00  0.0000E+00  0.0000E+00
     220   295.00000  0.0000E+00  0.0000E+00  0.0000E+00
     221   295.00000  0.0000E+00  0.0000E+00  0.0000E+00
     222   295.00000  0.0000E+00  0.0000E+00  0.0000E+00
     223   295.00000  0.0000E+00  0.0000E+00  0.0000E+00
     224   295.00000  0.0000E+00  0.0000E+00  0.0000E+00
     225   295.00000  0.0000E+00  0.0000E+00  0.0000E+00
     226   295.00000  0.0000E+00  0.0000E+00  0.0000E+00
     227   295.00000  0.0000E+00  0.0000E+00  0.0000E+00
     228   295.00000  0.0000E+00  0.0000E+00  0.0000E+00
     229   295.00000  0.0000E+00  0.0000E+00  0.0000E+00
     230   295.00000  0.0000E+00  0.0000E+00  0.0000E+00
     231   295.00000  0.0000E+00  0.0000E+00  0.0000E+00
     232   295.00000  0.0000E+00  0.0000E+00  0.0000E+00
     233   295.00000  0.0000E+00  0.0000E+00  0.0000E+00
     234   295.00000  0.0000E+00  0.0000E+00  0.0000E+00
     235   295.00000  0.0000E+00  0.0000E+00  0.0000E+00
     236   295.00000  0.0000E+00  0.0000E+00  0.0000E+00
     237   295.00000  0.0000E+00  0.0000E+00  0.0000E+00
     238   295.00000  0.0000E+00  0.0000E+00  0.0000E+00
     239   295.00000  0.0000E+00  0.0000E+00  0.0000E+00
     240   295.00000  0.0000E+00  0.0000E+00  0.0000E+00
     241   295.00000  0.0000E+00  0.0000E+00  0.0000E+00
     242   295.00000  0.0000E+00  0.0000E+00  0.0000E+00
     243   295.00000  0.0000E+00  0.0000E+00  0.0000E+00
     244   295.00000  0.0000E+00  0.0000E+00  0.0000E+00
     245   295.00000  0.0000E+00  0.0000E+00  0.0000E+00
     246   295.00000  0.0000E+00  0.0000E+00  0.0000E+00
     247   295.00000  0.0000E+00  0.0000E+00  0.0000E+00
     248   295.00000  0.0000E+00  0.0000E+00  0.0000E+00
     249   295.00000  0.0000E+00  0.0000E+00  0.0000E+00
     250   295.00000  0.0000E+00  0.0000E+00  0.0000E+00
     251   295.00000  0.0000E+00  0.0000E+00  0.0000E+00
     252   295.00000  0.0000E+00  0.0000E+00  0.0000E+00
     253   295.00000  0.0000E+00  0.0000E+00  0.0000E+00
     254   295.00000  0.0000E+00  0.0000E+00  0.0000E+00
     255   295.00000  0.0000E+00  0.0000E+00  0.0000E+00
     256   295.00000  0.0000E+00  0.0000E+00  0.0000E+00
     257   295.00000  0.0000E+00  0.0000E+00  0.0000E+00
     258   295.00000  0.0000E+00  0.0000E+00  0.0000E+00
     259   295.00000  0.0000E+00  0.0000E+00  0.0000E+00
     260   295.00000  0.0000E+00  0.0000E+00  0.0000E+00
     261   295.00000  0.0000E+00  0.0000E+00  0.0000E+00
     262   295.00000  0.0000E+00  0.0000E+00  0.0000E+00
     263   295.00000  0.0000E+00  0.0000E+00  0.0000E+00
     264   295.00000  0.0000E+00  0.0000E+00  0.0000E+00
     265   295.00000  0.0000E+00  0.0000E+00  0.0000E+00
     266   295.00000  0.0000E+00  0.0000E+00  0.0000E+00
     267   295.00000  0.0000E+00  0.0000E+00  0.0000E+00
     268   295.00000  0.0000E+00  0.0000E+00  0.0000E+00
     269   295.00000  0.0000E+00  0.0000E+00  0.0000E+00
     270   295.00000  0.0000E+00  0.0000E+00  0.0000E+00
     271   295.00000  0.0000E+00  0.0000E+00  0.0000E+00
     272   295.00000  0.0000E+00  0.0000E+00  0.0000E+00
     273   295.00000  0.0000E+00  0.0000E+00  0.0000E+00
     274   295.00000  0.0000E+00  0.0000E+00  0.0000E+00
     275   295.00000  0.0000E+00  0.0000E+00  0.0000E+00
     276   295.00000  0.0000E+00  0.0000E+00  0.0000E+00
     277   295.00000  0.0000E+00  0.0000E+00  0.0000E+00
     278   295.00000  0.0000E+00  0.0000E+00  0.0000E+00
     279   295.00000  0.0000E+00  0.0000E+00  0.0000E+00
     280   295.00000  0.0000E+00  0.0000E+00  0.0000E+00
     281   295.00000  0.0000E+00  0.0000E+00  0.0000E+00
     282   295.00000  0.0000E+00  0.0000E+00  0.0000E+00
     283   295.00000  0.0000E+00  0.0000E+00  0.0000E+00
     284   295.00000  0.0000E+00  0.0000E+00  0.0000E+00
     285   295.00000  0.0000E+00  0.0000E+00  0.0000E+00
     286   295.00000  0.0000E+00  0.0000E+00  0.0000E+00
     287   295.00000  0.0000E+00  0.0000E+00  0.0000E+00
     288   295.00000  0.0000E+00  0.0000E+00  0.0000E+00
     289   295.00000  0.0000E+00  0.0000E+00  0.0000E+00
     290   295.00000  0.0000E+00  0.0000E+00  0.0000E+00
     291   295.00000  0.0000E+00  0.0000E+00  0.0000E+00
     292   295.00000  0.0000E+00  0.0000E+00  0.0000E+00
     293   295.00000  0.0000E+00  0.0000E+00  0.0000E+00
     294   295.00000  0.0000E+00  0.0000E+00  0.0000E+00
     295   295.00000  0.0000E+00  0.0000E+00  0.0000E+00
     296   295.00000  0.0000E+00  0.0000E+00  0.0000E+00
     297   295.00000  0.0000E+00  0.0000E+00  0.0000E+00
     298   295.00000  0.0000E+00  0.0000E+00  0.0000E+00
     299   295.00000  0.0000E+00  0.0000E+00  0.0000E+00
     300   295.00000  0.0000E+00  0.0000E+00  0.0000E+00
     301   295.00000  0.0000E+00  0.0000E+00  0.0000E+00
     302   295.00000  0.0000E+00  0.0000E+00  0.0000E+00
     303   295.00000  0.0000E+00  0.0000E+00  0.0000E+00
     304   295.00000  0.0000E+00  0.0000E+00  0.0000E+00
     305   295.00000  0.0000E+00  0.0000E+00  0.0000E+00
     306   295.00000  0.0000E+00  0.0000E+00  0.0000E+00
     307   295.00000  0.0000E+00  0.0000E+00  0.0000E+00
     308   295.00000  0.0000E+00  0.0000E+00  0.0000E+00
     309   295.00000  0.0000E+00  0.0000E+00  0.0000E+00
     310   295.00000  0.0000E+00  0.0000E+00  0.0000E+00
     311   295.00000  0.0000E+00  0.0000E+00  0.0000E+00
     312   295.00000  0.0000E+00  0.0000E+00  0.0000E+00
     313   295.00000  0.0000E+00  0.0000E+00  0.0000E+00
     314   295.00000  0.0000E+00  0.0000E+00  0.0000E+00
     315   295.00000  0.0000E+00  0.0000E+00  0.0000E+00
     316   295.00000  0.0000E+00  0.0000E+00  0.0000E+00
     317   295.00000  0.0000E+00  0.0000E+00  0.0000E+00
     318   295.00000  0.0000E+00  0.0000E+00  0.0000E+00
     319   295.00000  0.0000E+00  0.0000E+00  0.0000E+00
     320   295.00000  0.0000E+00  0.0000E+00  0.0000E+00
     321   295.00000  0.0000E+00  0.0000E+00  0.0000E+00
     322   295.00000  0.0000E+00  0.0000E+00  0.0000E+00
     323   295.00000  0.0000E+00  0.0000E+00  0.0000E+00
     324   295.00000  0.0000E+00  0.0000E+00  0.0000E+00
     325   295.00000  0.0000E+00  0.0000E+00  0.0000E+00
     326   295.00000  0.0000E+00  0.0000E+00  0.0000E+00
     327   295.00000  0.0000E+00  0.0000E+00  0.0000E+00
     328   295.00000  0.0000E+00  0.0000E+00  0.0000E+00
     329   295.00000  0.0000E+00  0.0000E+00  0.0000E+00
     330   295.00000  0.0000E+00  0.0000E+00  0.0000E+00
     331   295.00000  0.0000E+00  0.0000E+00  0.0000E+00
     332   295.00000  0.0000E+00  0.0000E+00  0.0000E+00
     333   295.00000  0.0000E+00  0.0000E+00  0.0000E+00
     334   295.00000  0.0000E+00  0.0000E+00  0.0000E+00
     335   295.00000  0.0000E+00  0.0000E+00  0.0000E+00
     336   295.00000  0.0000E+00  0.0000E+00  0.0000E+00
     337   295.00000  0.0000E+00  0.0000E+00  0.0000E+00
     338   295.00000  0.0000E+00  0.0000E+00  0.0000E+00
     339   295.00000  0.0000E+00  0.0000E+00  0.0000E+00
     340   295.00000  0.0000E+00  0.0000E+00  0.0000E+00
     341   295.00000  0.0000E+00  0.0000E+00  0.0000E+00
     342   295.00000  0.0000E+00  0.0000E+00  0.0000E+00
     343   295.00000  0.0000E+00  0.0000E+00  0.0000E+00
     344   295.00000  0.0000E+00  0.0000E+00  0.0000E+00
     345   295.00000  0.0000E+00  0.0000E+00  0.0000E+00
     346   295.00000  0.0000E+00  0.0000E+00  0.0000E+00
     347   295.00000  0.0000E+00  0.0000E+00  0.0000E+00
     348   295.00000  0.0000E+00  0.0000E+00  0.0000E+00
     349   295.00000  0.0000E+00  0.0000E+00  0.0000E+00
     350   295.00000  0.0000E+00  0.0000E+00  0.0000E+00
     351   295.00000  0.0000E+00  0.0000E+00  0.0000E+00
     352   295.00000  0.0000E+00  0.0000E+00  0.0000E+00
     353   295.00000  0.0000E+00  0.0000E+00  0.0000E+00
     354   295.00000  0.0000E+00  0.0000E+00  0.0000E+00
     355   295.00000  0.0000E+00  0.0000E+00  0.0000E+00
     356   295.00000  0.0000E+00  0.0000E+00  0.0000E+00
     357   295.00000  0.0000E+00  0.0000E+00  0.0000E+00
     358   295.00000  0.0000E+00  0.0000E+00  0.0000E+00
     359   295.00000  0.0000E+00  0.0000E+00  0.0000E+00
     360   295.00000  0.0000E+00  0.0000E+00  0.0000E+00
     361   295.00000  0.0000E+00  0.0000E+00  0.0000E+00
     362   295.00000  0.0000E+00  0.0000E+00  0.0000E+00
     363   295.00000  0.0000E+00  0.0000E+00  0.0000E+00
     364   295.00000  0.0000E+00  0.0000E+00  0.0000E+00
     365   295.00000  0.0000E+00  0.0000E+00  0.0000E+00
     366   295.00000  0.0000E+00  0.0000E+00  0.0000E+00
     367   295.00000  0.0000E+00  0.0000E+00  0.0000E+00
     368   295.00000  0.0000E+00  0.0000E+00  0.0000E+00
     369   295.00000  0.0000E+00  0.0000E+00  0.0000E+00
     370   295.00000  0.0000E+00  0.0000E+00  0.0000E+00
     371   295.00000  0.0000E+00  0.0000E+00  0.0000E+00
     372   295.00000  0.0000E+00  0.0000E+00  0.0000E+00
     373   295.00000  0.0000E+00  0.0000E+00  0.0000E+00
     374   295.00000  0.0000E+00  0.0000E+00  0.0000E+00
     375   295.00000  0.0000E+00  0.0000E+00  0.0000E+00
     376   295.00000  0.0000E+00  0.0000E+00  0.0000E+00
     377   295.00000  0.0000E+00  0.0000E+00  0.0000E+00
     378   295.00000  0.0000E+00  0.0000E+00  0.0000E+00
     379   295.00000  0.0000E+00  0.0000E+00  0.0000E+00
     380   295.00000  0.0000E+00  0.0000E+00  0.0000E+00
     381   295.00000  0.0000E+00  0.0000E+00  0.0000E+00
     382   295.00000  0.0000E+00  0.0000E+00  0.0000E+00
     383   295.00000  0.0000E+00  0.0000E+00  0.0000E+00
     384   295.00000  0.0000E+00  0.0000E+00  0.0000E+00
     385   295.00000  0.0000E+00  0.0000E+00  0.0000E+00
     386   295.00000  0.0000E+00  0.0000E+00  0.0000E+00
     387   295.00000  0.0000E+00  0.0000E+00  0.0000E+00
     388   295.00000  0.0000E+00  0.0000E+00  0.0000E+00
     389   295.00000  0.0000E+00  0.0000E+00  0.0000E+00
     390   295.00000  0.0000E+00  0.0000E+00  0.0000E+00
     391   295.00000  0.0000E+00  0.0000E+00  0.0000E+00
     392   295.00000  0.0000E+00  0.0000E+00  0.0000E+00
     393   295.00000  0.0000E+00  0.0000E+00  0.0000E+00
     394   295.00000  0.0000E+00  0.0000E+00  0.0000E+00
     395   295.00000  0.0000E+00  0.0000E+00  0.0000E+00
     396   295.00000  0.0000E+00  0.0000E+00  0.0000E+00
     397   295.00000  0.0000E+00  0.0000E+00  0.0000E+00
     398   295.00000  0.0000E+00  0.0000E+00  0.0000E+00
     399   295.00000  0.0000E+00  0.0000E+00  0.0000E+00
     400   295.00000  0.0000E+00  0.0000E+00  0.0000E+00
     401   295.00000  0.0000E+00  0.0000E+00  0.0000E+00
     402   295.00000  0.0000E+00  0.0000E+00  0.0000E+00
     403   295.00000  0.0000E+00  0.0000E+00  0.0000E+00
     404   295.00000  0.0000E+00  0.0000E+00  0.0000E+00
     405   295.00000  0.0000E+00  0.0000E+00  0.0000E+00
     406   295.00000  0.0000E+00  0.0000E+00  0.0000E+00
     407   295.00000  0.0000E+00  0.0000E+00  0.0000E+00
     408   295.00000  0.0000E+00  0.0000E+00  0.0000E+00
     409   295.00000  0.0000E+00  0.0000E+00  0.0000E+00
     410   295.00000  0.0000E+00  0.0000E+00  0.0000E+00
     411   295.00000  0.0000E+00  0.0000E+00  0.0000E+00
     412   295.00000  0.0000E+00  0.0000E+00  0.0000E+00
     413   295.00000  0.0000E+00  0.0000E+00  0.0000E+00
     414   295.00000  0.0000E+00  0.0000E+00  0.0000E+00
     415   295.00000  0.0000E+00  0.0000E+00  0.0000E+00
     416   295.00000  0.0000E+00  0.0000E+00  0.0000E+00
     417   295.00000  0.0000E+00  0.0000E+00  0.0000E+00
     418   295.00000  0.0000E+00  0.0000E+00  0.0000E+00
     419   295.00000  0.0000E+00  0.0000E+00  0.0000E+00
     420   295.00000  0.0000E+00  0.0000E+00  0.0000E+00
     421   295.00000  0.0000E+00  0.0000E+00  0.0000E+00
     422   295.00000  0.0000E+00  0.0000E+00  0.0000E+00
     423   295.00000  0.0000E+00  0.0000E+00  0.0000E+00
     424   295.00000  0.0000E+00  0.0000E+00  0.0000E+00
     425   295.00000  0.0000E+00  0.0000E+00  0.0000E+00
     426   295.00000  0.0000E+00  0.0000E+00  0.0000E+00
     427   295.00000  0.0000E+00  0.0000E+00  0.0000E+00
     428   295.00000  0.0000E+00  0.0000E+00  0.0000E+00
     429   295.00000  0.0000E+00  0.0000E+00  0.0000E+00
     430   295.00000  0.0000E+00  0.0000E+00  0.0000E+00
     431   295.00000  0.0000E+00  0.0000E+00  0.0000E+00
     432   295.00000  0.0000E+00  0.0000E+00  0.0000E+00
     433   295.00000  0.0000E+00  0.0000E+00  0.0000E+00
     434   295.00000  0.0000E+00  0.0000E+00  0.0000E+00
     435   295.00000  0.0000E+00  0.0000E+00  0.0000E+00
     436   295.00000  0.0000E+00  0.0000E+00  0.0000E+00
     437   295.00000  0.0000E+00  0.0000E+00  0.0000E+00
     438   295.00000  0.0000E+00  0.0000E+00  0.0000E+00
     439   295.00000  0.0000E+00  0.0000E+00  0.0000E+00
     440   295.00000  0.0000E+00  0.0000E+00  0.0000E+00
     441   295.00000  0.0000E+00  0.0000E+00  0.0000E+00
     442   295.00000  0.0000E+00  0.0000E+00  0.0000E+00
     443   295.00000  0.0000E+00  0.0000E+00  0.0000E+00
     444   295.00000  0.0000E+00  0.0000E+00  0.0000E+00
     445   295.00000  0.0000E+00  0.0000E+00  0.0000E+00
     446   295.00000  0.0000E+00  0.0000E+00  0.0000E+00
     447   295.00000  0.0000E+00  0.0000E+00  0.0000E+00
     448   295.00000  0.0000E+00  0.0000E+00  0.0000E+00
     449   295.00000  0.0000E+00  0.0000E+00  0.0000E+00
     450   295.00000  0.0000E+00  0.0000E+00  0.0000E+00
     451   295.00000  0.0000E+00  0.0000E+00  0.0000E+00
     452   295.00000  0.0000E+00  0.0000E+00  0.0000E+00
     453   295.00000  0.0000E+00  0.0000E+00  0.0000E+00
     454   295.00000  0.0000E+00  0.0000E+00  0.0000E+00
     455   295.00000  0.0000E+00  0.0000E+00  0.0000E+00
     456   295.00000  0.0000E+00  0.0000E+00  0.0000E+00
     457   295.00000  0.0000E+00  0.0000E+00  0.0000E+00
     458   295.00000  0.0000E+00  0.0000E+00  0.0000E+00
     459   295.00000  0.0000E+00  0.0000E+00  0.0000E+00
     460   295.00000  0.0000E+00  0.0000E+00  0.0000E+00
     461   295.00000  0.0000E+00  0.0000E+00  0.0000E+00
     462   295.00000  0.0000E+00  0.0000E+00  0.0000E+00
     463   295.00000  0.0000E+00  0.0000E+00  0.0000E+00
     464   295.00000  0.0000E+00  0.0000E+00  0.0000E+00
     465   295.00000  0.0000E+00  0.0000E+00  0.0000E+00
     466   295.00000  0.0000E+00  0.0000E+00  0.0000E+00
     467   295.00000  0.0000E+00  0.0000E+00  0.0000E+00
     468   295.00000  0.0000E+00  0.0000E+00  0.0000E+00
     469   295.00000  0.0000E+00  0.0000E+00  0.0000E+00
     470   295.00000  0.0000E+00  0.0000E+00  0.0000E+00
     471   295.00000  0.0000E+00  0.0000E+00  0.0000E+00
     472   295.00000  0.0000E+00  0.0000E+00  0.0000E+00
     473   295.00000  0.0000E+00  0.0000E+00  0.0000E+00
     474   295.00000  0.0000E+00  0.0000E+00  0.0000E+00
     475   295.00000  0.0000E+00  0.0000E+00  0.0000E+00
     476   295.00000  0.0000E+00  0.0000E+00  0.0000E+00
     477   295.00000  0.0000E+00  0.0000E+00  0.0000E+00
     478   295.00000  0.0000E+00  0.0000E+00  0.0000E+00
     479   295.00000  0.0000E+00  0.0000E+00  0.0000E+00
     480   295.00000  0.0000E+00  0.0000E+00  0.0000E+00
     481   295.00000  0.0000E+00  0.0000E+00  0.0000E+00
     482   295.00000  0.0000E+00  0.0000E+00  0.0000E+00
     483   295.00000  0.0000E+00  0.0000E+00  0.0000E+00
     484   295.00000  0.0000E+00  0.0000E+00  0.0000E+00
     485   295.00000  0.0000E+00  0.0000E+00  0.0000E+00
     486   295.00000  0.0000E+00  0.0000E+00  0.0000E+00
     487   295.00000  0.0000E+00  0.0000E+00  0.0000E+00
     488   295.00000  0.0000E+00  0.0000E+00  0.0000E+00
     489   295.00000  0.0000E+00  0.0000E+00  0.0000E+00
     490   295.00000  0.0000E+00  0.0000E+00  0.0000E+00
     491   295.00000  0.0000E+00  0.0000E+00  0.0000E+00
     492   295.00000  0.0000E+00  0.0000E+00  0.0000E+00
     493   295.00000  0.0000E+00  0.0000E+00  0.0000E+00
     494   295.00000  0.0000E+00  0.0000E+00  0.0000E+00
     495   295.00000  0.0000E+00  0.0000E+00  0.0000E+00
     496   295.00000  0.0000E+00  0.0000E+00  0.0000E+00
     497   295.00000  0.0000E+00  0.0000E+00  0.0000E+00
     498   295.00000  0.0000E+00  0.0000E+00  0.0000E+00
     499   295.00000  0.0000E+00  0.0000E+00  0.0000E+00
     500   295.00000  0.0000E+00  0.0000E+00  0.0000E+00
     501   295.00000  0.0000E+00  0.0000E+00  0.0000E+00
     502   295.00000  0.0000E+00  0.0000E+00  0.0000E+00
     503   295.00000  0.0000E+00  0.0000E+00  0.0000E+00
     504   295.00000  0.0000E+00  0.0000E+00  0.0000E+00
     505   295.00000  0.0000E+00  0.0000E+00  0.0000E+00
     506   295.00000  0.0000E+00  0.0000E+00  0.0000E+00
     507   295.00000  0.0000E+00  0.0000E+00  0.0000E+00
     508   295.00000  0.0000E+00  0.0000E+00  0.0000E+00
     509   295.00000  0.0000E+00  0.0000E+00  0.0000E+00
     510   295.00000  0.0000E+00  0.0000E+00  0.0000E+00
     511   295.00000  0.0000E+00  0.0000E+00  0.0000E+00
     512   295.00000  0.0000E+00  0.0000E+00  0.0000E+00
     513   295.00000  0.0000E+00  0.0000E+00  0.0000E+00
     514   295.00000  0.0000E+00  0.0000E+00  0.0000E+00
     515   295.00000  0.0000E+00  0.0000E+00  0.0000E+00
     516   295.00000  0.0000E+00  0.0000E+00  0.0000E+00
     517   295.00000  0.0000E+00  0.0000E+00  0.0000E+00
     518   295.00000  0.0000E+00  0.0000E+00  0.0000E+00
     519   295.00000  0.0000E+00  0.0000E+00  0.0000E+00
     520   295.00000  0.0000E+00  0.0000E+00  0.0000E+00
     521   295.00000  0.0000E+00  0.0000E+00  0.0000E+00
     522   295.00000  0.0000E+00  0.0000E+00  0.0000E+00
     523   295.00000  0.0000E+00  0.0000E+00  0.0000E+00
     524   295.00000  0.0000E+00  0.0000E+00  0.0000E+00
     525   295.00000  0.0000E+00  0.0000E+00  0.0000E+00
     526   295.00000  0.0000E+00  0.0000E+00  0.0000E+00
     527   295.00000  0.0000E+00  0.0000E+00  0.0000E+00
     528   295.00000  0.0000E+00  0.0000E+00  0.0000E+00
     529   295.00000  0.0000E+00  0.0000E+00  0.0000E+00
     530   295.00000  0.0000E+00  0.0000E+00  0.0000E+00
     531   295.00000  0.0000E+00  0.0000E+00  0.0000E+00
     532   295.00000  0.0000E+00  0.0000E+00  0.0000E+00
     533   295.00000  0.0000E+00  0.0000E+00  0.0000E+00
     534   295.00000  0.0000E+00  0.0000E+00  0.0000E+00
     535   295.00000  0.0000E+00  0.0000E+00  0.0000E+00
     536   295.00000  0.0000E+00  0.0000E+00  0.0000E+00
     537   295.00000  0.0000E+00  0.0000E+00  0.0000E+00
     538   295.00000  0.0000E+00  0.0000E+00  0.0000E+00
     539   295.00000  0.0000E+00  0.0000E+00  0.0000E+00
     540   295.00000  0.0000E+00  0.0000E+00  0.0000E+00
     541   295.00000  0.0000E+00  0.0000E+00  0.0000E+00
     542   295.00000  0.0000E+00  0.0000E+00  0.0000E+00
     543   295.00000  0.0000E+00  0.0000E+00  0.0000E+00
     544   295.00000  0.0000E+00  0.0000E+00  0.0000E+00
     545   295.00000  0.0000E+00  0.0000E+00  0.0000E+00
     546   295.00000  0.0000E+00  0.0000E+00  0.0000E+00
     547   295.00000  0.0000E+00  0.0000E+00  0.0000E+00
     548   295.00000  0.0000E+00  0.0000E+00  0.0000E+00
     549   295.00000  0.0000E+00  0.0000E+00  0.0000E+00
     550   295.00000  0.0000E+00  0.0000E+00  0.0000E+00
     551   295.00000  0.0000E+00  0.0000E+00  0.0000E+00
     552   295.00000  0.0000E+00  0.0000E+00  0.0000E+00
     553   295.00000  0.0000E+00  0.0000E+00  0.0000E+00
     554   295.00000  0.0000E+00  0.0000E+00  0.0000E+00
     555   295.00000  0.0000E+00  0.0000E+00  0.0000E+00
     556   295.00000  0.0000E+00  0.0000E+00  0.0000E+00
     557   295.00000  0.0000E+00  0.0000E+00  0.0000E+00
     558   295.00000  0.0000E+00  0.0000E+00  0.0000E+00
     559   295.00000  0.0000E+00  0.0000E+00  0.0000E+00
     560   295.00000  0.0000E+00  0.0000E+00  0.0000E+00
     561   295.00000  0.0000E+00  0.0000E+00  0.0000E+00
     562   295.00000  0.0000E+00  0.0000E+00  0.0000E+00
     563   295.00000  0.0000E+00  0.0000E+00  0.0000E+00
     564   295.00000  0.0000E+00  0.0000E+00  0.0000E+00
     565   295.00000  0.0000E+00  0.0000E+00  0.0000E+00
     566   295.00000  0.0000E+00  0.0000E+00  0.0000E+00
     567   295.00000  0.0000E+00  0.0000E+00  0.0000E+00
     568   295.00000  0.0000E+00  0.0000E+00  0.0000E+00
     569   295.00000  0.0000E+00  0.0000E+00  0.0000E+00
     570   295.00000  0.0000E+00  0.0000E+00  0.0000E+00
     571   295.00000  0.0000E+00  0.0000E+00  0.0000E+00
     572   295.00000  0.0000E+00  0.0000E+00  0.0000E+00
     573   295.00000  0.0000E+00  0.0000E+00  0.0000E+00
     574   295.00000  0.0000E+00  0.0000E+00  0.0000E+00
     575   295.00000  0.0000E+00  0.0000E+00  0.0000E+00
     576   295.00000  0.0000E+00  0.0000E+00  0.0000E+00
     577   295.00000  0.0000E+00  0.0000E+00  0.0000E+00
     578   295.00000  0.0000E+00  0.0000E+00  0.0000E+00
     579   295.00000  0.0000E+00  0.0000E+00  0.0000E+00
     580   295.00000  0.0000E+00  0.0000E+00  0.0000E+00
     581   295.00000  0.0000E+00  0.0000E+00  0.0000E+00
     582   295.00000  0.0000E+00  0.0000E+00  0.0000E+00
     583   295.00000  0.0000E+00  0.0000E+00  0.0000E+00
     584   295.00000  0.0000E+00  0.0000E+00  0.0000E+00
     585   295.00000  0.0000E+00  0.0000E+00  0.0000E+00
     586   295.00000  0.0000E+00  0.0000E+00  0.0000E+00
     587   295.00000  0.0000E+00  0.0000E+00  0.0000E+00
     588   295.00000  0.0000E+00  0.0000E+00  0.0000E+00
     589   295.00000  0.0000E+00  0.0000E+00  0.0000E+00
     590   295.00000  0.0000E+00  0.0000E+00  0.0000E+00
     591   295.00000  0.0000E+00  0.0000E+00  0.0000E+00
     592   295.00000  0.0000E+00  0.0000E+00  0.0000E+00
     593   295.00000  0.0000E+00  0.0000E+00  0.0000E+00
     594   295.00000  0.0000E+00  0.0000E+00  0.0000E+00
     595   295.00000  0.0000E+00  0.0000E+00  0.0000E+00
     596   295.00000  0.0000E+00  0.0000E+00  0.0000E+00
     597   295.00000  0.0000E+00  0.0000E+00  0.0000E+00
     598   295.00000  0.0000E+00  0.0000E+00  0.0000E+00
     599   295.00000  0.0000E+00  0.0000E+00  0.0000E+00
     600   295.00000  0.0000E+00  0.0000E+00  0.0000E+00
     601   295.00000  0.0000E+00  0.0000E+00  0.0000E+00
     602   295.00000  0.0000E+00  0.0000E+00  0.0000E+00
     603   295.00000  0.0000E+00  0.0000E+00  0.0000E+00
     604   295.00000  0.0000E+00  0.0000E+00  0.0000E+00
     605   295.00000  0.0000E+00  0.0000E+00  0.0000E+00
     606   295.00000  0.0000E+00  0.0000E+00  0.0000E+00
     607   295.00000  0.0000E+00  0.0000E+00  0.0000E+00
     608   295.00000  0.0000E+00  0.0000E+00  0.0000E+00
     609   295.00000  0.0000E+00  0.0000E+00  0.0000E+00
     610   295.00000  0.0000E+00  0.0000E+00  0.0000E+00
     611   295.00000  0.0000E+00  0.0000E+00  0.0000E+00
     612   295.00000  0.0000E+00  0.0000E+00  0.0000E+00
     613   295.00000  0.0000E+00  0.0000E+00  0.0000E+00
     614   295.00000  0.0000E+00  0.0000E+00  0.0000E+00
     615   295.00000  0.0000E+00  0.0000E+00  0.0000E+00
     616   295.00000  0.0000E+00  0.0000E+00  0.0000E+00
     617   295.00000  0.0000E+00  0.0000E+00  0.0000E+00
     618   295.00000  0.0000E+00  0.0000E+00  0.0000E+00
     619   295.00000  0.0000E+00  0.0000E+00  0.0000E+00
     620   295.00000  0.0000E+00  0.0000E+00  0.0000E+00
     621   295.00000  0.0000E+00  0.0000E+00  0.0000E+00
     622   295.00000  0.0000E+00  0.0000E+00  0.0000E+00
     623   295.00000  0.0000E+00  0.0000E+00  0.0000E+00
     624   295.00000  0.0000E+00  0.0000E+00  0.0000E+00
     625   295.00000  0.0000E+00  0.0000E+00  0.0000E+00
     626   295.00000  0.0000E+00  0.0000E+00  0.0000E+00
     627   295.00000  0.0000E+00  0.0000E+00  0.0000E+00
     628   295.00000  0.0000E+00  0.0000E+00  0.0000E+00
     629   295.00000  0.0000E+00  0.0000E+00  0.0000E+00
     630   295.00000  0.0000E+00  0.0000E+00  0.0000E+00
     631   295.00000  0.0000E+00  0.0000E+00  0.0000E+00
     632   295.00000  0.0000E+00  0.0000E+00  0.0000E+00
     633   295.00000  0.0000E+00  0.0000E+00  0.0000E+00
     634   295.00000  0.0000E+00  0.0000E+00  0.0000E+00
     635   295.00000  0.0000E+00  0.0000E+00  0.0000E+00
     636   295.00000  0.0000E+00  0.0000E+00  0.0000E+00
     637   295.00000  0.0000E+00  0.0000E+00  0.0000E+00
     638   295.00000  0.0000E+00  0.0000E+00  0.0000E+00
     639   295.00000  0.0000E+00  0.0000E+00  0.0000E+00
     640   295.00000  0.0000E+00  0.0000E+00  0.0000E+00
     641   295.00000  0.0000E+00  0.0000E+00  0.0000E+00
     642   295.00000  0.0000E+00  0.0000E+00  0.0000E+00
     643   295.00000  0.0000E+00  0.0000E+00  0.0000E+00
     644   295.00000  0.0000E+00  0.0000E+00  0.0000E+00
     645   295.00000  0.0000E+00  0.0000E+00  0.0000E+00
     646   295.00000  0.0000E+00  0.0000E+00  0.0000E+00
     647   295.00000  0.0000E+00  0.0000E+00  0.0000E+00
     648   295.00000  0.0000E+00  0.0000E+00  0.0000E+00
     649   295.00000  0.0000E+00  0.0000E+00  0.0000E+00
     650   295.00000  0.0000E+00  0.0000E+00  0.0000E+00
     651   295.00000  0.0000E+00  0.0000E+00  0.0000E+00
     652   295.00000  0.0000E+00  0.0000E+00  0.0000E+00
     653   295.00000  0.0000E+00  0.0000E+00  0.0000E+00
     654   295.00000  0.0000E+00  0.0000E+00  0.0000E+00
     655   295.00000  0.0000E+00  0.0000E+00  0.0000E+00
     656   295.00000  0.0000E+00  0.0000E+00  0.0000E+00
     657   295.00000  0.0000E+00  0.0000E+00  0.0000E+00
     658   295.00000  0.0000E+00  0.0000E+00  0.0000E+00
     659   295.00000  0.0000E+00  0.0000E+00  0.0000E+00
     660   295.00000  0.0000E+00  0.0000E+00  0.0000E+00
     661   295.00000  0.0000E+00  0.0000E+00  0.0000E+00
     662   295.00000  0.0000E+00  0.0000E+00  0.0000E+00
     663   295.00000  0.0000E+00  0.0000E+00  0.0000E+00
     664   295.00000  0.0000E+00  0.0000E+00  0.0000E+00
     665   295.00000  0.0000E+00  0.0000E+00  0.0000E+00
     666   295.00000  0.0000E+00  0.0000E+00  0.0000E+00
     667   295.00000  0.0000E+00  0.0000E+00  0.0000E+00
     668   295.00000  0.0000E+00  0.0000E+00  0.0000E+00
     669   295.00000  0.0000E+00  0.0000E+00  0.0000E+00
     670   295.00000  0.0000E+00  0.0000E+00  0.0000E+00
     671   295.00000  0.0000E+00  0.0000E+00  0.0000E+00
     672   295.00000  0.0000E+00  0.0000E+00  0.0000E+00
     673   295.00000  0.0000E+00  0.0000E+00  0.0000E+00
     674   295.00000  0.0000E+00  0.0000E+00  0.0000E+00
     675   295.00000  0.0000E+00  0.0000E+00  0.0000E+00
     676   295.00000  0.0000E+00  0.0000E+00  0.0000E+00
     677   295.00000  0.0000E+00  0.0000E+00  0.0000E+00
     678   295.00000  0.0000E+00  0.0000E+00  0.0000E+00
     679   295.00000  0.0000E+00  0.0000E+00  0.0000E+00
     680   295.00000  0.0000E+00  0.0000E+00  0.0000E+00
     681   295.00000  0.0000E+00  0.0000E+00  0.0000E+00
     682   295.00000  0.0000E+00  0.0000E+00  0.0000E+00
     683   295.00000  0.0000E+00  0.0000E+00  0.0000E+00
     684   295.00000  0.0000E+00  0.0000E+00  0.0000E+00
     685   295.00000  0.0000E+00  0.0000E+00  0.0000E+00
     686   295.00000  0.0000E+00  0.0000E+00  0.0000E+00
     687   295.00000  0.0000E+00  0.0000E+00  0.0000E+00
     688   295.00000  0.0000E+00  0.0000E+00  0.0000E+00
     689   295.00000  0.0000E+00  0.0000E+00  0.0000E+00
     690   295.00000  0.0000E+00  0.0000E+00  0.0000E+00
     691   295.00000  0.0000E+00  0.0000E+00  0.0000E+00
     692   295.00000  0.0000E+00  0.0000E+00  0.0000E+00
     693   295.00000  0.0000E+00  0.0000E+00  0.0000E+00
     694   295.00000  0.0000E+00  0.0000E+00  0.0000E+00
     695   295.00000  0.0000E+00  0.0000E+00  0.0000E+00
     696   295.00000  0.0000E+00  0.0000E+00  0.0000E+00
     697   295.00000  0.0000E+00  0.0000E+00  0.0000E+00
     698   295.00000  0.0000E+00  0.0000E+00  0.0000E+00
     699   295.00000  0.0000E+00  0.0000E+00  0.0000E+00
     700   295.00000  0.0000E+00  0.0000E+00  0.0000E+00
     701   295.00000  0.0000E+00  0.0000E+00  0.0000E+00
     702   295.00000  0.0000E+00  0.0000E+00  0.0000E+00
     703   295.00000  0.0000E+00  0.0000E+00  0.0000E+00
     704   295.00000  0.0000E+00  0.0000E+00  0.0000E+00
     705   295.00000  0.0000E+00  0.0000E+00  0.0000E+00
     706   295.00000  0.0000E+00  0.0000E+00  0.0000E+00
     707   295.00000  0.0000E+00  0.0000E+00  0.0000E+00
     708   295.00000  0.0000E+00  0.0000E+00  0.0000E+00
     709   295.00000  0.0000E+00  0.0000E+00  0.0000E+00
     710   295.00000  0.0000E+00  0.0000E+00  0.0000E+00
     711   295.00000  0.0000E+00  0.0000E+00  0.0000E+00
     712   295.00000  0.0000E+00  0.0000E+00  0.0000E+00
     713   295.00000  0.0000E+00  0.0000E+00  0.0000E+00
     714   295.00000  0.0000E+00  0.0000E+00  0.0000E+00
     715   295.00000  0.0000E+00  0.0000E+00  0.0000E+00
     716   295.00000  0.0000E+00  0.0000E+00  0.0000E+00
     717   295.00000  0.0000E+00  0.0000E+00  0.0000E+00
     718   295.00000  0.0000E+00  0.0000E+00  0.0000E+00
     719   295.00000  0.0000E+00  0.0000E+00  0.0000E+00
     720   295.00000  0.0000E+00  0.0000E+00  0.0000E+00
     721   295.00000  0.0000E+00  0.0000E+00  0.0000E+00
     722   295.00000  0.0000E+00  0.0000E+00  0.0000E+00
     723   295.00000  0.0000E+00  0.0000E+00  0.0000E+00
     724   295.00000  0.0000E+00  0.0000E+00  0.0000E+00
     725   295.00000  0.0000E+00  0.0000E+00  0.0000E+00
     726   295.00000  0.0000E+00  0.0000E+00  0.0000E+00
     727   295.00000  0.0000E+00  0.0000E+00  0.0000E+00
     728   295.00000  0.0000E+00  0.0000E+00  0.0000E+00
     729   295.00000  0.0000E+00  0.0000E+00  0.0000E+00
     730   295.00000  0.0000E+00  0.0000E+00  0.0000E+00
     731   295.00000  0.0000E+00  0.0000E+00  0.0000E+00
     732   295.00000  0.0000E+00  0.0000E+00  0.0000E+00
     733   295.00000  0.0000E+00  0.0000E+00  0.0000E+00
     734   295.00000  0.0000E+00  0.0000E+00  0.0000E+00
     735   295.00000  0.0000E+00  0.0000E+00  0.0000E+00
     736   295.00000  0.0000E+00  0.0000E+00  0.0000E+00
     737   295.00000  0.0000E+00  0.0000E+00  0.0000E+00
     738   295.00000  0.0000E+00  0.0000E+00  0.0000E+00
     739   295.00000  0.0000E+00  0.0000E+00  0.0000E+00
     740   295.00000  0.0000E+00  0.0000E+00  0.0000E+00
     741   295.00000  0.0000E+00  0.0000E+00  0.0000E+00
     742   295.00000  0.0000E+00  0.0000E+00  0.0000E+00
     743   295.00000  0.0000E+00  0.0000E+00  0.0000E+00
     744   295.00000  0.0000E+00  0.0000E+00  0.0000E+00
     745   295.00000  0.0000E+00  0.0000E+00  0.0000E+00
     746   295.00000  0.0000E+00  0.0000E+00  0.0000E+00
     747   295.00000  0.0000E+00  0.0000E+00  0.0000E+00
     748   295.00000  0.0000E+00  0.0000E+00  0.0000E+00
     749   295.00000  0.0000E+00  0.0000E+00  0.0000E+00
     750   295.00000  0.0000E+00  0.0000E+00  0.0000E+00
     751   295.00000  0.0000E+00  0.0000E+00  0.0000E+00
     752   295.00000  0.0000E+00  0.0000E+00  0.0000E+00
     753   295.00000  0.0000E+00  0.0000E+00  0.0000E+00
     754   295.00000  0.0000E+00  0.0000E+00  0.0000E+00
     755   295.00000  0.0000E+00  0.0000E+00  0.0000E+00
     756   295.00000  0.0000E+00  0.0000E+00  0.0000E+00
     757   295.00000  0.0000E+00  0.0000E+00  0.0000E+00
     758   295.00000  0.0000E+00  0.0000E+00  0.0000E+00
     759   295.00000  0.0000E+00  0.0000E+00  0.0000E+00
     760   295.00000  0.0000E+00  0.0000E+00  0.0000E+00
     761   295.00000  0.0000E+00  0.0000E+00  0.0000E+00
     762   295.00000  0.0000E+00  0.0000E+00  0.0000E+00
     763   295.00000  0.0000E+00  0.0000E+00  0.0000E+00
     764   295.00000  0.0000E+00  0.0000E+00  0.0000E+00
     765   295.00000  0.0000E+00  0.0000E+00  0.0000E+00
     766   295.00000  0.0000E+00  0.0000E+00  0.0000E+00
     767   295.00000  0.0000E+00  0.0000E+00  0.0000E+00
     768   295.00000  0.0000E+00  0.0000E+00  0.0000E+00
     769   295.00000  0.0000E+00  0.0000E+00  0.0000E+00
     770   295.00000  0.0000E+00  0.0000E+00  0.0000E+00
     771   295.00000  0.0000E+00  0.0000E+00  0.0000E+00
     772   295.00000  0.0000E+00  0.0000E+00  0.0000E+00
     773   295.00000  0.0000E+00  0.0000E+00  0.0000E+00
     774   295.00000  0.0000E+00  0.0000E+00  0.0000E+00
     775   295.00000  0.0000E+00  0.0000E+00  0.0000E+00
     776   295.00000  0.0000E+00  0.0000E+00  0.0000E+00
     777   295.00000  0.0000E+00  0.0000E+00  0.0000E+00
     778   295.00000  0.0000E+00  0.0000E+00  0.0000E+00
     779   295.00000  0.0000E+00  0.0000E+00  0.0000E+00
     780   295.00000  0.0000E+00  0.0000E+00  0.0000E+00
     781   295.00000  0.0000E+00  0.0000E+00  0.0000E+00
     782   295.00000  0.0000E+00  0.0000E+00  0.0000E+00
     783   295.00000  0.0000E+00  0.0000E+00  0.0000E+00
     784   295.00000  0.0000E+00  0.0000E+00  0.0000E+00
     785   295.00000  0.0000E+00  0.0000E+00  0.0000E+00
     786   295.00000  0.0000E+00  0.0000E+00  0.0000E+00
     787   295.00000  0.0000E+00  0.0000E+00  0.0000E+00
     788   295.00000  0.0000E+00  0.0000E+00  0.0000E+00
     789   295.00000  0.0000E+00  0.0000E+00  0.0000E+00
     790   295.00000  0.0000E+00  0.0000E+00  0.0000E+00
     791   295.00000  0.0000E+00  0.0000E+00  0.0000E+00
     792   295.00000  0.0000E+00  0.0000E+00  0.0000E+00
     793   295.00000  0.0000E+00  0.0000E+00  0.0000E+00
     794   295.00000  0.0000E+00  0.0000E+00  0.0000E+00
     795   295.00000  0.0000E+00  0.0000E+00  0.0000E+00
     796   295.00000  0.0000E+00  0.0000E+00  0.0000E+00
     797   295.00000  0.0000E+00  0.0000E+00  0.0000E+00
     798   295.00000  0.0000E+00  0.0000E+00  0.0000E+00
     799   295.00000  0.0000E+00  0.0000E+00  0.0000E+00
     800   295.00000  0.0000E+00  0.0000E+00  0.0000E+00
     801   295.00000  0.0000E+00  0.0000E+00  0.0000E+00
     802   295.00000  0.0000E+00  0.0000E+00  0.0000E+00
     803   295.00000  0.0000E+00  0.0000E+00  0.0000E+00
     804   295.00000  0.0000E+00  0.0000E+00  0.0000E+00
     805   295.00000  0.0000E+00  0.0000E+00  0.0000E+00
     806   295.00000  0.0000E+00  0.0000E+00  0.0000E+00
     807   295.00000  0.0000E+00  0.0000E+00  0.0000E+00
     808   295.00000  0.0000E+00  0.0000E+00  0.0000E+00
     809   295.00000  0.0000E+00  0.0000E+00  0.0000E+00
     810   295.00000  0.0000E+00  0.0000E+00  0.0000E+00
     811   295.00000  0.0000E+00  0.0000E+00  0.0000E+00
     812   295.00000  0.0000E+00  0.0000E+00  0.0000E+00
     813   295.00000  0.0000E+00  0.0000E+00  0.0000E+00
     814   295.00000  0.0000E+00  0.0000E+00  0.0000E+00
     815   295.00000  0.0000E+00  0.0000E+00  0.0000E+00
     816   295.00000  0.0000E+00  0.0000E+00  0.0000E+00
     817   295.00000  0.0000E+00  0.0000E+00  0.0000E+00
     818   295.00000  0.0000E+00  0.0000E+00  0.0000E+00
     819   295.00000  0.0000E+00  0.0000E+00  0.0000E+00
     820   295.00000  0.0000E+00  0.0000E+00  0.0000E+00
     821   295.00000  0.0000E+00  0.0000E+00  0.0000E+00
     822   295.00000  0.0000E+00  0.0000E+00  0.0000E+00
     823   295.00000  0.0000E+00  0.0000E+00  0.0000E+00
     824   295.00000  0.0000E+00  0.0000E+00  0.0000E+00
     825   295.00000  0.0000E+00  0.0000E+00  0.0000E+00
     826   295.00000  0.0000E+00  0.0000E+00  0.0000E+00
     827   295.00000  0.0000E+00  0.0000E+00  0.0000E+00
     828   295.00000  0.0000E+00  0.0000E+00  0.0000E+00
     829   295.00000  0.0000E+00  0.0000E+00  0.0000E+00
     830   295.00000  0.0000E+00  0.0000E+00  0.0000E+00
     831   295.00000  0.0000E+00  0.0000E+00  0.0000E+00
     832   295.00000  0.0000E+00  0.0000E+00  0.0000E+00
     833   295.00000  0.0000E+00  0.0000E+00  0.0000E+00
     834   295.00000  0.0000E+00  0.0000E+00  0.0000E+00
     835   295.00000  0.0000E+00  0.0000E+00  0.0000E+00
     836   295.00000  0.0000E+00  0.0000E+00  0.0000E+00
     837   295.00000  0.0000E+00  0.0000E+00  0.0000E+00
     838   295.00000  0.0000E+00  0.0000E+00  0.0000E+00
     839   295.00000  0.0000E+00  0.0000E+00  0.0000E+00
     840   295.00000  0.0000E+00  0.0000E+00  0.0000E+00
     841   295.00000  0.0000E+00  0.0000E+00  0.0000E+00
     842   295.00000  0.0000E+00  0.0000E+00  0.0000E+00
     843   295.00000  0.0000E+00  0.0000E+00  0.0000E+00
     844   295.00000  0.0000E+00  0.0000E+00  0.0000E+00
     845   295.00000  0.0000E+00  0.0000E+00  0.0000E+00
     846   295.00000  0.0000E+00  0.0000E+00  0.0000E+00
     847   295.00000  0.0000E+00  0.0000E+00  0.0000E+00
     848   295.00000  0.0000E+00  0.0000E+00  0.0000E+00
     849   295.00000  0.0000E+00  0.0000E+00  0.0000E+00
     850   295.00000  0.0000E+00  0.0000E+00  0.0000E+00
     851   295.00000  0.0000E+00  0.0000E+00  0.0000E+00
     852   295.00000  0.0000E+00  0.0000E+00  0.0000E+00
     853   295.00000  0.0000E+00  0.0000E+00  0.0000E+00
     854   295.00000  0.0000E+00  0.0000E+00  0.0000E+00
     855   295.00000  0.0000E+00  0.0000E+00  0.0000E+00
     856   295.00000  0.0000E+00  0.0000E+00  0.0000E+00
     857   295.00000  0.0000E+00  0.0000E+00  0.0000E+00
     858   295.00000  0.0000E+00  0.0000E+00  0.0000E+00
     859   295.00000  0.0000E+00  0.0000E+00  0.0000E+00
     860   295.00000  0.0000E+00  0.0000E+00  0.0000E+00
     861   295.00000  0.0000E+00  0.0000E+00  0.0000E+00
     862   295.00000  0.0000E+00  0.0000E+00  0.0000E+00
     863   295.00000  0.0000E+00  0.0000E+00  0.0000E+00
     864   295.00000  0.0000E+00  0.0000E+00  0.0000E+00
     865   295.00000  0.0000E+00  0.0000E+00  0.0000E+00
     866   295.00000  0.0000E+00  0.0000E+00  0.0000E+00
     867   295.00000  0.0000E+00  0.0000E+00  0.0000E+00
     868   295.00000  0.0000E+00  0.0000E+00  0.0000E+00
     869   295.00000  0.0000E+00  0.0000E+00  0.0000E+00
     870   295.00000  0.0000E+00  0.0000E+00  0.0000E+00
     871   295.00000  0.0000E+00  0.0000E+00  0.0000E+00
     872   295.00000  0.0000E+00  0.0000E+00  0.0000E+00
     873   295.00000  0.0000E+00  0.0000E+00  0.0000E+00
     874   295.00000  0.0000E+00  0.0000E+00  0.0000E+00
     875   295.00000  0.0000E+00  0.0000E+00  0.0000E+00
     876   295.00000  0.0000E+00  0.0000E+00  0.0000E+00
     877   295.00000  0.0000E+00  0.0000E+00  0.0000E+00
     878   295.00000  0.0000E+00  0.0000E+00  0.0000E+00
     879   295.00000  0.0000E+00  0.0000E+00  0.0000E+00
     880   295.00000  0.0000E+00  0.0000E+00  0.0000E+00
     881   295.00000  0.0000E+00  0.0000E+00  0.0000E+00
     882   295.00000  0.0000E+00  0.0000E+00  0.0000E+00
     883   295.00000  0.0000E+00  0.0000E+00  0.0000E+00
     884   295.00000  0.0000E+00  0.0000E+00  0.0000E+00
     885   295.00000  0.0000E+00  0.0000E+00  0.0000E+00
     886   295.00000  0.0000E+00  0.0000E+00  0.0000E+00
     887   295.00000  0.0000E+00  0.0000E+00  0.0000E+00
     888   295.00000  0.0000E+00  0.0000E+00  0.0000E+00
     889   295.00000  0.0000E+00  0.0000E+00  0.0000E+00
     890   295.00000  0.0000E+00  0.0000E+00  0.0000E+00
     891   295.00000  0.0000E+00  0.0000E+00  0.0000E+00
     892   295.00000  0.0000E+00  0.0000E+00  0.0000E+00
     893   295.00000  0.0000E+00  0.0000E+00  0.0000E+00
     894   295.00000  0.0000E+00  0.0000E+00  0.0000E+00
     895   295.00000  0.0000E+00  0.0000E+00  0.0000E+00
     896   295.00000  0.0000E+00  0.0000E+00  0.0000E+00
     897   295.00000  0.0000E+00  0.0000E+00  0.0000E+00
     898   295.00000  0.0000E+00  0.0000E+00  0.0000E+00
     899   295.00000  0.0000E+00  0.0000E+00  0.0000E+00
     900   295.00000  0.0000E+00  0.0000E+00  0.0000E+00
     901   295.00000  0.0000E+00  0.0000E+00  0.0000E+00
     902   295.00000  0.0000E+00  0.0000E+00  0.0000E+00
     903   295.00000  0.0000E+00  0.0000E+00  0.0000E+00
     904   295.00000  0.0000E+00  0.0000E+00  0.0000E+00
     905   295.00000  0.0000E+00  0.0000E+00  0.0000E+00
     906   295.00000  0.0000E+00  0.0000E+00  0.0000E+00
     907   295.00000  0.0000E+00  0.0000E+00  0.0000E+00
     908   295.00000  0.0000E+00  0.0000E+00  0.0000E+00
     909   295.00000  0.0000E+00  0.0000E+00  0.0000E+00
     910   295.00000  0.0000E+00  0.0000E+00  0.0000E+00
     911   295.00000  0.0000E+00  0.0000E+00  0.0000E+00
     912   295.00000  0.0000E+00  0.0000E+00  0.0000E+00
     913   295.00000  0.0000E+00  0.0000E+00  0.0000E+00
     914   295.00000  0.0000E+00  0.0000E+00  0.0000E+00
     915   295.00000  0.0000E+00  0.0000E+00  0.0000E+00
     916   295.00000  0.0000E+00  0.0000E+00  0.0000E+00
     917   295.00000  0.0000E+00  0.0000E+00  0.0000E+00
     918   295.00000  0.0000E+00  0.0000E+00  0.0000E+00
     919   295.00000  0.0000E+00  0.0000E+00  0.0000E+00
     920   295.00000  0.0000E+00  0.0000E+00  0.0000E+00
     921   295.00000  0.0000E+00  0.0000E+00  0.0000E+00
     922   295.00000  0.0000E+00  0.0000E+00  0.0000E+00
     923   295.00000  0.0000E+00  0.0000E+00  0.0000E+00
     924   295.00000  0.0000E+00  0.0000E+00  0.0000E+00
     925   295.00000  0.0000E+00  0.0000E+00  0.0000E+00
     926   295.00000  0.0000E+00  0.0000E+00  0.0000E+00
     927   295.00000  0.0000E+00  0.0000E+00  0.0000E+00
     928   295.00000  0.0000E+00  0.0000E+00  0.0000E+00
     929   295.00000  0.0000E+00  0.0000E+00  0.0000E+00
     930   295.00000  0.0000E+00  0.0000E+00  0.0000E+00
     931   295.00000  0.0000E+00  0.0000E+00  0.0000E+00
     932   295.00000  0.0000E+00  0.0000E+00  0.0000E+00
     933   295.00000  0.0000E+00  0.0000E+00  0.0000E+00
     934   295.00000  0.0000E+00  0.0000E+00  0.0000E+00
     935   295.00000  0.0000E+00  0.0000E+00  0.0000E+00
     936   295.00000  0.0000E+00  0.0000E+00  0.0000E+00
     937   295.00000  0.0000E+00  0.0000E+00  0.0000E+00
     938   295.00000  0.0000E+00  0.0000E+00  0.0000E+00
     939   295.00000  0.0000E+00  0.0000E+00  0.0000E+00
     940   295.00000  0.0000E+00  0.0000E+00  0.0000E+00
     941   295.00000  0.0000E+00  0.0000E+00  0.0000E+00
     942   295.00000  0.0000E+00  0.0000E+00  0.0000E+00
     943   295.00000  0.0000E+00  0.0000E+00  0.0000E+00
     944   295.00000  0.0000E+00  0.0000E+00  0.0000E+00
     945   295.00000  0.0000E+00  0.0000E+00  0.0000E+00
     946   295.00000  0.0000E+00  0.0000E+00  0.0000E+00
     947   295.00000  0.0000E+00  0.0000E+00  0.0000E+00
     948   295.00000  0.0000E+00  0.0000E+00  0.0000E+00
     949   295.00000  0.0000E+00  0.0000E+00  0.0000E+00
     950   295.00000  0.0000E+00  0.0000E+00  0.0000E+00
     951   295.00000  0.0000E+00  0.0000E+00  0.0000E+00
     952   295.00000  0.0000E+00  0.0000E+00  0.0000E+00
     953   295.00000  0.0000E+00  0.0000E+00  0.0000E+00
     954   295.00000  0.0000E+00  0.0000E+00  0.0000E+00
     955   295.00000  0.0000E+00  0.0000E+00  0.0000E+00
     956   295.00000  0.0000E+00  0.0000E+00  0.0000E+00
     957   295.00000  0.0000E+00  0.0000E+00  0.0000E+00
     958   295.00000  0.0000E+00  0.0000E+00  0.0000E+00
     959   295.00000  0.0000E+00  0.0000E+00  0.0000E+00
     960   295.00000  0.0000E+00  0.0000E+00  0.0000E+00
     961   295.00000  0.0000E+00  0.0000E+00  0.0000E+00
     962   295.00000  0.0000E+00  0.0000E+00  0.0000E+00
     963   295.00000  0.0000E+00  0.0000E+00  0.0000E+00
     964   295.00000  0.0000E+00  0.0000E+00  0.0000E+00
     965   295.00000  0.0000E+00  0.0000E+00  0.0000E+00
     966   295.00000  0.0000E+00  0.0000E+00  0.0000E+00
     967   295.00000  0.0000E+00  0.0000E+00  0.0000E+00
     968   295.00000  0.0000E+00  0.0000E+00  0.0000E+00
     969   295.00000  0.0000E+00  0.0000E+00  0.0000E+00
     970   295.00000  0.0000E+00  0.0000E+00  0.0000E+00
     971   295.00000  0.0000E+00  0.0000E+00  0.0000E+00
     972   295.00000  0.0000E+00  0.0000E+00  0.0000E+00
     973   295.00000  0.0000E+00  0.0000E+00  0.0000E+00
     974   295.00000  0.0000E+00  0.0000E+00  0.0000E+00
     975   295.00000  0.0000E+00  0.0000E+00  0.0000E+00
     976   295.00000  0.0000E+00  0.0000E+00  0.0000E+00
     977   295.00000  0.0000E+00  0.0000E+00  0.0000E+00
     978   295.00000  0.0000E+00  0.0000E+00  0.0000E+00
     979   295.00000  0.0000E+00  0.0000E+00  0.0000E+00
     980   295.00000  0.0000E+00  0.0000E+00  0.0000E+00
     981   295.00000  0.0000E+00  0.0000E+00  0.0000E+00
     982   295.00000  0.0000E+00  0.0000E+00  0.0000E+00
     983   295.00000  0.0000E+00  0.0000E+00  0.0000E+00
     984   295.00000  0.0000E+00  0.0000E+00  0.0000E+00
     985   295.00000  0.0000E+00  0.0000E+00  0.0000E+00
     986   295.00000  0.0000E+00  0.0000E+00  0.0000E+00
     987   295.00000  0.0000E+00  0.0000E+00  0.0000E+00
     988   295.00000  0.0000E+00  0.0000E+00  0.0000E+00
     989   295.00000  0.0000E+00  0.0000E+00  0.0000E+00
     990   295.00000  0.0000E+00  0.0000E+00  0.0000E+00
     991   295.00000  0.0000E+00  0.0000E+00  0.0000E+00
     992   295.00000  0.0000E+00  0.0000E+00  0.0000E+00
     993   295.00000  0.0000E+00  0.0000E+00  0.0000E+00
     994   295.00000  0.0000E+00  0.0000E+00  0.0000E+00
     995   295.00000  0.0000E+00  0.0000E+00  0.0000E+00
     996   295.00000  0.0000E+00  0.0000E+00  0.0000E+00
     997   295.00000  0.0000E+00  0.0000E+00  0.0000E+00
     998   295.00000  0.0000E+00  0.0000E+00  0.0000E+00
     999   295.00000  0.0000E+00  0.0000E+00  0.0000E+00
    1000   295.00000  0.0000E+00  0.0000E+00  0.0000E+00
    1001   295.00000  0.0000E+00  0.0000E+00  0.0000E+00
    1002   295.00000  0.0000E+00  0.0000E+00  0.0000E+00
    1003   295.00000  0.0000E+00  0.0000E+00  0.0000E+00
    1004   295.00000  0.0000E+00  0.0000E+00  0.0000E+00
    1005   295.00000  0.0000E+00  0.0000E+00  0.0000E+00
    1006   295.00000  0.0000E+00  0.0000E+00  0.0000E+00
    1007   295.00000  0.0000E+00  0.0000E+00  0.0000E+00
    1008   295.00000  0.0000E+00  0.0000E+00  0.0000E+00
    1009   295.00000  0.0000E+00  0.0000E+00  0.0000E+00
    1010   295.00000  0.0000E+00  0.0000E+00  0.0000E+00
    1011   295.00000  0.0000E+00  0.0000E+00  0.0000E+00
    1012   295.00000  0.0000E+00  0.0000E+00  0.0000E+00
    1013   295.00000  0.0000E+00  0.0000E+00  0.0000E+00
    1014   295.00000  0.0000E+00  0.0000E+00  0.0000E+00
    1015   295.00000  0.0000E+00  0.0000E+00  0.0000E+00
    1016   295.00000  0.0000E+00  0.0000E+00  0.0000E+00
    1017   295.00000  0.0000E+00  0.0000E+00  0.0000E+00
    1018   295.00000  0.0000E+00  0.0000E+00  0.0000E+00
    1019   295.00000  0.0000E+00  0.0000E+00  0.0000E+00
    1020   295.00000  0.0000E+00  0.0000E+00  0.0000E+00
    1021   295.00000  0.0000E+00  0.0000E+00  0.0000E+00
    1022   295.00000  0.0000E+00  0.0000E+00  0.0000E+00
    1023   295.00000  0.0000E+00  0.0000E+00  0.0000E+00
    1024   295.00000  0.0000E+00  0.0000E+00  0.0000E+00
    1025   295.00000  0.0000E+00  0.0000E+00  0.0000E+00
    1026   295.00000  0.0000E+00  0.0000E+00  0.0000E+00
    1027   295.00000  0.0000E+00  0.0000E+00  0.0000E+00
    1028   295.00000  0.0000E+00  0.0000E+00  0.0000E+00
    1029   295.00000  0.0000E+00  0.0000E+00  0.0000E+00
    1030   295.00000  0.0000E+00  0.0000E+00  0.0000E+00
    1031   295.00000  0.0000E+00  0.0000E+00  0.0000E+00
    1032   295.00000  0.0000E+00  0.0000E+00  0.0000E+00
    1033   295.00000  0.0000E+00  0.0000E+00  0.0000E+00
    1034   295.00000  0.0000E+00  0.0000E+00  0.0000E+00
    1035   295.00000  0.0000E+00  0.0000E+00  0.0000E+00
    1036   295.00000  0.0000E+00  0.0000E+00  0.0000E+00
    1037   295.00000  0.0000E+00  0.0000E+00  0.0000E+00
    1038   295.00000  0.0000E+00  0.0000E+00  0.0000E+00
    1039   295.00000  0.0000E+00  0.0000E+00  0.0000E+00
    1040   295.00000  0.0000E+00  0.0000E+00  0.0000E+00
    1041   295.00000  0.0000E+00  0.0000E+00  0.0000E+00
    1042   295.00000  0.0000E+00  0.0000E+00  0.0000E+00
    1043   295.00000  0.0000E+00  0.0000E+00  0.0000E+00
    1044   295.00000  0.0000E+00  0.0000E+00  0.0000E+00
    1045   295.00000  0.0000E+00  0.0000E+00  0.0000E+00
    1046   295.00000  0.0000E+00  0.0000E+00  0.0000E+00
    1047   295.00000  0.0000E+00  0.0000E+00  0.0000E+00
    1048   295.00000  0.0000E+00  0.0000E+00  0.0000E+00
    1049   295.00000  0.0000E+00  0.0000E+00  0.0000E+00
    1050   295.00000  0.0000E+00  0.0000E+00  0.0000E+00
    1051   295.00000  0.0000E+00  0.0000E+00  0.0000E+00
    1052   295.00000  0.0000E+00  0.0000E+00  0.0000E+00
    1053   295.00000  0.0000E+00  0.0000E+00  0.0000E+00
    1054   295.00000  0.0000E+00  0.0000E+00  0.0000E+00
    1055   295.00000  0.0000E+00  0.0000E+00  0.0000E+00
    1056   295.00000  0.0000E+00  0.0000E+00  0.0000E+00
    1057   295.00000  0.0000E+00  0.0000E+00  0.0000E+00
    1058   295.00000  0.0000E+00  0.0000E+00  0.0000E+00
    1059   295.00000  0.0000E+00  0.0000E+00  0.0000E+00
    1060   295.00000  0.0000E+00  0.0000E+00  0.0000E+00
    1061   295.00000  0.0000E+00  0.0000E+00  0.0000E+00
    1062   295.00000  0.0000E+00  0.0000E+00  0.0000E+00
    1063   295.00000  0.0000E+00  0.0000E+00  0.0000E+00
    1064   295.00000  0.0000E+00  0.0000E+00  0.0000E+00
    1065   295.00000  0.0000E+00  0.0000E+00  0.0000E+00
    1066   295.00000  0.0000E+00  0.0000E+00  0.0000E+00
    1067   295.00000  0.0000E+00  0.0000E+00  0.0000E+00
    1068   295.00000  0.0000E+00  0.0000E+00  0.0000E+00
    1069   295.00000  0.0000E+00  0.0000E+00  0.0000E+00
    1070   295.00000  0.0000E+00  0.0000E+00  0.0000E+00
    1071   295.00000  0.0000E+00  0.0000E+00  0.0000E+00
    1072   295.00000  0.0000E+00  0.0000E+00  0.0000E+00
    1073   295.00000  0.0000E+00  0.0000E+00  0.0000E+00
    1074   295.00000  0.0000E+00  0.0000E+00  0.0000E+00
    1075   295.00000  0.0000E+00  0.0000E+00  0.0000E+00
    1076   295.00000  0.0000E+00  0.0000E+00  0.0000E+00
    1077   295.00000  0.0000E+00  0.0000E+00  0.0000E+00
    1078   295.00000  0.0000E+00  0.0000E+00  0.0000E+00
    1079   295.00000  0.0000E+00  0.0000E+00  0.0000E+00
    1080   295.00000  0.0000E+00  0.0000E+00  0.0000E+00
    1081   295.00000  0.0000E+00  0.0000E+00  0.0000E+00
    1082   295.00000  0.0000E+00  0.0000E+00  0.0000E+00
    1083   295.00000  0.0000E+00  0.0000E+00  0.0000E+00
    1084   295.00000  0.0000E+00  0.0000E+00  0.0000E+00
    1085   295.00000  0.0000E+00  0.0000E+00  0.0000E+00
    1086   295.00000  0.0000E+00  0.0000E+00  0.0000E+00
    1087   295.00000  0.0000E+00  0.0000E+00  0.0000E+00
    1088   295.00000  0.0000E+00  0.0000E+00  0.0000E+00
    1089   295.00000  0.0000E+00  0.0000E+00  0.0000E+00
    1090   295.00000  0.0000E+00  0.0000E+00  0.0000E+00
    1091   295.00000  0.0000E+00  0.0000E+00  0.0000E+00
    1092   295.00000  0.0000E+00  0.0000E+00  0.0000E+00
    1093   295.00000  0.0000E+00  0.0000E+00  0.0000E+00
    1094   295.00000  0.0000E+00  0.0000E+00  0.0000E+00
    1095   295.00000  0.0000E+00  0.0000E+00  0.0000E+00
    1096   295.00000  0.0000E+00  0.0000E+00  0.0000E+00
    1097   295.00000  0.0000E+00  0.0000E+00  0.0000E+00
    1098   295.00000  0.0000E+00  0.0000E+00  0.0000E+00
    1099   295.00000  0.0000E+00  0.0000E+00  0.0000E+00
    1100   295.00000  0.0000E+00  0.0000E+00  0.0000E+00
    1101   295.00000  0.0000E+00  0.0000E+00  0.0000E+00
    1102   295.00000  0.0000E+00  0.0000E+00  0.0000E+00
    1103   295.00000  0.0000E+00  0.0000E+00  0.0000E+00
    1104   295.00000  0.0000E+00  0.0000E+00  0.0000E+00
    1105   295.00000  0.0000E+00  0.0000E+00  0.0000E+00
    1106   295.00000  0.0000E+00  0.0000E+00  0.0000E+00
    1107   295.00000  0.0000E+00  0.0000E+00  0.0000E+00
    1108   295.00000  0.0000E+00  0.0000E+00  0.0000E+00
    1109   295.00000  0.0000E+00  0.0000E+00  0.0000E+00
    1110   295.00000  0.0000E+00  0.0000E+00  0.0000E+00
    1111   295.00000  0.0000E+00  0.0000E+00  0.0000E+00
    1112   295.00000  0.0000E+00  0.0000E+00  0.0000E+00
    1113   295.00000  0.0000E+00  0.0000E+00  0.0000E+00
    1114   295.00000  0.0000E+00  0.0000E+00  0.0000E+00
    1115   295.00000  0.0000E+00  0.0000E+00  0.0000E+00
    1116   295.00000  0.0000E+00  0.0000E+00  0.0000E+00
    1117   295.00000  0.0000E+00  0.0000E+00  0.0000E+00
    1118   295.00000  0.0000E+00  0.0000E+00  0.0000E+00
    1119   295.00000  0.0000E+00  0.0000E+00  0.0000E+00
    1120   295.00000  0.0000E+00  0.0000E+00  0.0000E+00
    1121   295.00000  0.0000E+00  0.0000E+00  0.0000E+00
    1122   295.00000  0.0000E+00  0.0000E+00  0.0000E+00
    1123   295.00000  0.0000E+00  0.0000E+00  0.0000E+00
    1124   295.00000  0.0000E+00  0.0000E+00  0.0000E+00
    1125   295.00000  0.0000E+00  0.0000E+00  0.0000E+00
    1126   295.00000  0.0000E+00  0.0000E+00  0.0000E+00
    1127   295.00000  0.0000E+00  0.0000E+00  0.0000E+00
    1128   295.00000  0.0000E+00  0.0000E+00  0.0000E+00
    1129   295.00000  0.0000E+00  0.0000E+00  0.0000E+00
    1130   295.00000  0.0000E+00  0.0000E+00  0.0000E+00
    1131   295.00000  0.0000E+00  0.0000E+00  0.0000E+00
    1132   295.00000  0.0000E+00  0.0000E+00  0.0000E+00
    1133   295.00000  0.0000E+00  0.0000E+00  0.0000E+00
    1134   295.00000  0.0000E+00  0.0000E+00  0.0000E+00
    1135   295.00000  0.0000E+00  0.0000E+00  0.0000E+00
    1136   295.00000  0.0000E+00  0.0000E+00  0.0000E+00
    1137   295.00000  0.0000E+00  0.0000E+00  0.0000E+00
    1138   295.00000  0.0000E+00  0.0000E+00  0.0000E+00
    1139   295.00000  0.0000E+00  0.0000E+00  0.0000E+00
    1140   295.00000  0.0000E+00  0.0000E+00  0.0000E+00
    1141   295.00000  0.0000E+00  0.0000E+00  0.0000E+00
    1142   295.00000  0.0000E+00  0.0000E+00  0.0000E+00
    1143   295.00000  0.0000E+00  0.0000E+00  0.0000E+00
    1144   295.00000  0.0000E+00  0.0000E+00  0.0000E+00
    1145   295.00000  0.0000E+00  0.0000E+00  0.0000E+00
    1146   295.00000  0.0000E+00  0.0000E+00  0.0000E+00
    1147   295.00000  0.0000E+00  0.0000E+00  0.0000E+00
    1148   295.00000  0.0000E+00  0.0000E+00  0.0000E+00
    1149   295.00000  0.0000E+00  0.0000E+00  0.0000E+00
    1150   295.00000  0.0000E+00  0.0000E+00  0.0000E+00
    1151   295.00000  0.0000E+00  0.0000E+00  0.0000E+00
    1152   295.00000  0.0000E+00  0.0000E+00  0.0000E+00
    1153   295.00000  0.0000E+00  0.0000E+00  0.0000E+00
    1154   295.00000  0.0000E+00  0.0000E+00  0.0000E+00
    1155   295.00000  0.0000E+00  0.0000E+00  0.0000E+00
    1156   295.00000  0.0000E+00  0.0000E+00  0.0000E+00
    1157   295.00000  0.0000E+00  0.0000E+00  0.0000E+00
    1158   295.00000  0.0000E+00  0.0000E+00  0.0000E+00
    1159   295.00000  0.0000E+00  0.0000E+00  0.0000E+00
    1160   295.00000  0.0000E+00  0.0000E+00  0.0000E+00
    1161   295.00000  0.0000E+00  0.0000E+00  0.0000E+00
    1162   295.00000  0.0000E+00  0.0000E+00  0.0000E+00
    1163   295.00000  0.0000E+00  0.0000E+00  0.0000E+00
    1164   295.00000  0.0000E+00  0.0000E+00  0.0000E+00
    1165   295.00000  0.0000E+00  0.0000E+00  0.0000E+00
    1166   295.00000  0.0000E+00  0.0000E+00  0.0000E+00
    1167   295.00000  0.0000E+00  0.0000E+00  0.0000E+00
    1168   295.00000  0.0000E+00  0.0000E+00  0.0000E+00
    1169   295.00000  0.0000E+00  0.0000E+00  0.0000E+00
    1170   295.00000  0.0000E+00  0.0000E+00  0.0000E+00
    1171   295.00000  0.0000E+00  0.0000E+00  0.0000E+00
    1172   295.00000  0.0000E+00  0.0000E+00  0.0000E+00
    1173   295.00000  0.0000E+00  0.0000E+00  0.0000E+00
    1174   295.00000  0.0000E+00  0.0000E+00  0.0000E+00
    1175   295.00000  0.0000E+00  0.0000E+00  0.0000E+00
    1176   295.00000  0.0000E+00  0.0000E+00  0.0000E+00
    1177   295.00000  0.0000E+00  0.0000E+00  0.0000E+00
    1178   295.00000  0.0000E+00  0.0000E+00  0.0000E+00
    1179   295.00000  0.0000E+00  0.0000E+00  0.0000E+00
    1180   295.00000  0.0000E+00  0.0000E+00  0.0000E+00
    1181   295.00000  0.0000E+00  0.0000E+00  0.0000E+00
    1182   295.00000  0.0000E+00  0.0000E+00  0.0000E+00
    1183   295.00000  0.0000E+00  0.0000E+00  0.0000E+00
    1184   295.00000  0.0000E+00  0.0000E+00  0.0000E+00
    1185   295.00000  0.0000E+00  0.0000E+00  0.0000E+00
    1186   295.00000  0.0000E+00  0.0000E+00  0.0000E+00
    1187   295.00000  0.0000E+00  0.0000E+00  0.0000E+00
    1188   295.00000  0.0000E+00  0.0000E+00  0.0000E+00
    1189   295.00000  0.0000E+00  0.0000E+00  0.0000E+00
    1190   295.00000  0.0000E+00  0.0000E+00  0.0000E+00
    1191   295.00000  0.0000E+00  0.0000E+00  0.0000E+00
    1192   295.00000  0.0000E+00  0.0000E+00  0.0000E+00
    1193   295.00000  0.0000E+00  0.0000E+00  0.0000E+00
    1194   295.00000  0.0000E+00  0.0000E+00  0.0000E+00
    1195   295.00000  0.0000E+00  0.0000E+00  0.0000E+00
    1196   295.00000  0.0000E+00  0.0000E+00  0.0000E+00
    1197   295.00000  0.0000E+00  0.0000E+00  0.0000E+00
    1198   295.00000  0.0000E+00  0.0000E+00  0.0000E+00
    1199   295.00000  0.0000E+00  0.0000E+00  0.0000E+00
    1200   295.00000  0.0000E+00  0.0000E+00  0.0000E+00
    1201   295.00000  0.0000E+00  0.0000E+00  0.0000E+00
    1202   295.00000  0.0000E+00  0.0000E+00  0.0000E+00
    1203   295.00000  0.0000E+00  0.0000E+00  0.0000E+00
    1204   295.00000  0.0000E+00  0.0000E+00  0.0000E+00
    1205   295.00000  0.0000E+00  0.0000E+00  0.0000E+00
    1206   295.00000  0.0000E+00  0.0000E+00  0.0000E+00
    1207   295.00000  0.0000E+00  0.0000E+00  0.0000E+00
    1208   295.00000  0.0000E+00  0.0000E+00  0.0000E+00
    1209   295.00000  0.0000E+00  0.0000E+00  0.0000E+00
    1210   295.00000  0.0000E+00  0.0000E+00  0.0000E+00
    1211   295.00000  0.0000E+00  0.0000E+00  0.0000E+00
    1212   295.00000  0.0000E+00  0.0000E+00  0.0000E+00
    1213   295.00000  0.0000E+00  0.0000E+00  0.0000E+00
    1214   295.00000  0.0000E+00  0.0000E+00  0.0000E+00
    1215   295.00000  0.0000E+00  0.0000E+00  0.0000E+00
    1216   295.00000  0.0000E+00  0.0000E+00  0.0000E+00
    1217   295.00000  0.0000E+00  0.0000E+00  0.0000E+00
    1218   295.00000  0.0000E+00  0.0000E+00  0.0000E+00
    1219   295.00000  0.0000E+00  0.0000E+00  0.0000E+00
    1220   295.00000  0.0000E+00  0.0000E+00  0.0000E+00
    1221   295.00000  0.0000E+00  0.0000E+00  0.0000E+00
    1222   295.00000  0.0000E+00  0.0000E+00  0.0000E+00
    1223   295.00000  0.0000E+00  0.0000E+00  0.0000E+00
    1224   295.00000  0.0000E+00  0.0000E+00  0.0000E+00
    1225   295.00000  0.0000E+00  0.0000E+00  0.0000E+00
    1226   295.00000  0.0000E+00  0.0000E+00  0.0000E+00
    1227   295.00000  0.0000E+00  0.0000E+00  0.0000E+00
    1228   295.00000  0.0000E+00  0.0000E+00  0.0000E+00
    1229   295.00000  0.0000E+00  0.0000E+00  0.0000E+00
    1230   295.00000  0.0000E+00  0.0000E+00  0.0000E+00
    1231   295.00000  0.0000E+00  0.0000E+00  0.0000E+00
    1232   295.00000  0.0000E+00  0.0000E+00  0.0000E+00
    1233   295.00000  0.0000E+00  0.0000E+00  0.0000E+00
    1234   295.00000  0.0000E+00  0.0000E+00  0.0000E+00
    1235   295.00000  0.0000E+00  0.0000E+00  0.0000E+00
    1236   295.00000  0.0000E+00  0.0000E+00  0.0000E+00
    1237   295.00000  0.0000E+00  0.0000E+00  0.0000E+00
    1238   295.00000  0.0000E+00  0.0000E+00  0.0000E+00
    1239   295.00000  0.0000E+00  0.0000E+00  0.0000E+00
    1240   295.00000  0.0000E+00  0.0000E+00  0.0000E+00
    1241   295.00000  0.0000E+00  0.0000E+00  0.0000E+00
    1242   295.00000  0.0000E+00  0.0000E+00  0.0000E+00
    1243   295.00000  0.0000E+00  0.0000E+00  0.0000E+00
    1244   295.00000  0.0000E+00  0.0000E+00  0.0000E+00
    1245   295.00000  0.0000E+00  0.0000E+00  0.0000E+00
    1246   295.00000  0.0000E+00  0.0000E+00  0.0000E+00
    1247   295.00000  0.0000E+00  0.0000E+00  0.0000E+00
    1248   295.00000  0.0000E+00  0.0000E+00  0.0000E+00
    1249   295.00000  0.0000E+00  0.0000E+00  0.0000E+00
    1250   295.00000  0.0000E+00  0.0000E+00  0.0000E+00
    1251   295.00000  0.0000E+00  0.0000E+00  0.0000E+00
    1252   295.00000  0.0000E+00  0.0000E+00  0.0000E+00
    1253   295.00000  0.0000E+00  0.0000E+00  0.0000E+00
    1254   295.00000  0.0000E+00  0.0000E+00  0.0000E+00
    1255   295.00000  0.0000E+00  0.0000E+00  0.0000E+00
    1256   295.00000  0.0000E+00  0.0000E+00  0.0000E+00
    1257   295.00000  0.0000E+00  0.0000E+00  0.0000E+00
    1258   295.00000  0.0000E+00  0.0000E+00  0.0000E+00
    1259   295.00000  0.0000E+00  0.0000E+00  0.0000E+00
    1260   295.00000  0.0000E+00  0.0000E+00  0.0000E+00
    1261   295.00000  0.0000E+00  0.0000E+00  0.0000E+00
    1262   295.00000  0.0000E+00  0.0000E+00  0.0000E+00
    1263   295.00000  0.0000E+00  0.0000E+00  0.0000E+00
    1264   295.00000  0.0000E+00  0.0000E+00  0.0000E+00
    1265   295.00000  0.0000E+00  0.0000E+00  0.0000E+00
    1266   295.00000  0.0000E+00  0.0000E+00  0.0000E+00
    1267   295.00000  0.0000E+00  0.0000E+00  0.0000E+00
    1268   295.00000  0.0000E+00  0.0000E+00  0.0000E+00
    1269   295.00000  0.0000E+00  0.0000E+00  0.0000E+00
    1270   295.00000  0.0000E+00  0.0000E+00  0.0000E+00
    1271   295.00000  0.0000E+00  0.0000E+00  0.0000E+00
    1272   295.00000  0.0000E+00  0.0000E+00  0.0000E+00
    1273   295.00000  0.0000E+00  0.0000E+00  0.0000E+00
    1274   295.00000  0.0000E+00  0.0000E+00  0.0000E+00
    1275   295.00000  0.0000E+00  0.0000E+00  0.0000E+00
    1276   295.00000  0.0000E+00  0.0000E+00  0.0000E+00
    1277   295.00000  0.0000E+00  0.0000E+00  0.0000E+00
    1278   295.00000  0.0000E+00  0.0000E+00  0.0000E+00
    1279   295.00000  0.0000E+00  0.0000E+00  0.0000E+00
    1280   295.00000  0.0000E+00  0.0000E+00  0.0000E+00
    1281   295.00000  0.0000E+00  0.0000E+00  0.0000E+00
    1282   295.00000  0.0000E+00  0.0000E+00  0.0000E+00
    1283   295.00000  0.0000E+00  0.0000E+00  0.0000E+00
    1284   295.00000  0.0000E+00  0.0000E+00  0.0000E+00
    1285   295.00000  0.0000E+00  0.0000E+00  0.0000E+00
    1286   295.00000  0.0000E+00  0.0000E+00  0.0000E+00
    1287   295.00000  0.0000E+00  0.0000E+00  0.0000E+00
    1288   295.00000  0.0000E+00  0.0000E+00  0.0000E+00
    1289   295.00000  0.0000E+00  0.0000E+00  0.0000E+00
    1290   295.00000  0.0000E+00  0.0000E+00  0.0000E+00
    1291   295.00000  0.0000E+00  0.0000E+00  0.0000E+00
    1292   295.00000  0.0000E+00  0.0000E+00  0.0000E+00
    1293   295.00000  0.0000E+00  0.0000E+00  0.0000E+00
    1294   295.00000  0.0000E+00  0.0000E+00  0.0000E+00
    1295   295.00000  0.0000E+00  0.0000E+00  0.0000E+00
    1296   295.00000  0.0000E+00  0.0000E+00  0.0000E+00
    1297   295.00000  0.0000E+00  0.0000E+00  0.0000E+00
    1298   295.00000  0.0000E+00  0.0000E+00  0.0000E+00
    1299   295.00000  0.0000E+00  0.0000E+00  0.0000E+00
    1300   295.00000  0.0000E+00  0.0000E+00  0.0000E+00
    1301   295.00000  0.0000E+00  0.0000E+00  0.0000E+00
    1302   295.00000  0.0000E+00  0.0000E+00  0.0000E+00
    1303   295.00000  0.0000E+00  0.0000E+00  0.0000E+00
    1304   295.00000  0.0000E+00  0.0000E+00  0.0000E+00
    1305   295.00000  0.0000E+00  0.0000E+00  0.0000E+00
    1306   295.00000  0.0000E+00  0.0000E+00  0.0000E+00
    1307   295.00000  0.0000E+00  0.0000E+00  0.0000E+00
    1308   295.00000  0.0000E+00  0.0000E+00  0.0000E+00
    1309   295.00000  0.0000E+00  0.0000E+00  0.0000E+00
    1310   295.00000  0.0000E+00  0.0000E+00  0.0000E+00
    1311   295.00000  0.0000E+00  0.0000E+00  0.0000E+00
    1312   295.00000  0.0000E+00  0.0000E+00  0.0000E+00
    1313   295.00000  0.0000E+00  0.0000E+00  0.0000E+00
    1314   295.00000  0.0000E+00  0.0000E+00  0.0000E+00
    1315   295.00000  0.0000E+00  0.0000E+00  0.0000E+00
    1316   295.00000  0.0000E+00  0.0000E+00  0.0000E+00
    1317   295.00000  0.0000E+00  0.0000E+00  0.0000E+00
    1318   295.00000  0.0000E+00  0.0000E+00  0.0000E+00
    1319   295.00000  0.0000E+00  0.0000E+00  0.0000E+00
    1320   295.00000  0.0000E+00  0.0000E+00  0.0000E+00
    1321   295.00000  0.0000E+00  0.0000E+00  0.0000E+00
    1322   295.00000  0.0000E+00  0.0000E+00  0.0000E+00
    1323   295.00000  0.0000E+00  0.0000E+00  0.0000E+00
    1324   295.00000  0.0000E+00  0.0000E+00  0.0000E+00
    1325   295.00000  0.0000E+00  0.0000E+00  0.0000E+00
    1326   295.00000  0.0000E+00  0.0000E+00  0.0000E+00
    1327   295.00000  0.0000E+00  0.0000E+00  0.0000E+00
    1328   295.00000  0.0000E+00  0.0000E+00  0.0000E+00
    1329   295.00000  0.0000E+00  0.0000E+00  0.0000E+00
    1330   295.00000  0.0000E+00  0.0000E+00  0.0000E+00
    1331   295.00000  0.0000E+00  0.0000E+00  0.0000E+00
    1332   295.00000  0.0000E+00  0.0000E+00  0.0000E+00
    1333   295.00000  0.0000E+00  0.0000E+00  0.0000E+00
    1334   295.00000  0.0000E+00  0.0000E+00  0.0000E+00
    1335   295.00000  0.0000E+00  0.0000E+00  0.0000E+00
    1336   295.00000  0.0000E+00  0.0000E+00  0.0000E+00
    1337   295.00000  0.0000E+00  0.0000E+00  0.0000E+00
    1338   295.00000  0.0000E+00  0.0000E+00  0.0000E+00
    1339   295.00000  0.0000E+00  0.0000E+00  0.0000E+00
    1340   295.00000  0.0000E+00  0.0000E+00  0.0000E+00
    1341   295.00000  0.0000E+00  0.0000E+00  0.0000E+00
    1342   295.00000  0.0000E+00  0.0000E+00  0.0000E+00
    1343   295.00000  0.0000E+00  0.0000E+00  0.0000E+00
    1344   295.00000  0.0000E+00  0.0000E+00  0.0000E+00
    1345   295.00000  0.0000E+00  0.0000E+00  0.0000E+00
    1346   295.00000  0.0000E+00  0.0000E+00  0.0000E+00
    1347   295.00000  0.0000E+00  0.0000E+00  0.0000E+00
    1348   295.00000  0.0000E+00  0.0000E+00  0.0000E+00
    1349   295.00000  0.0000E+00  0.0000E+00  0.0000E+00
    1350   295.00000  0.0000E+00  0.0000E+00  0.0000E+00
    1351   295.00000  0.0000E+00  0.0000E+00  0.0000E+00
    1352   295.00000  0.0000E+00  0.0000E+00  0.0000E+00
    1353   295.00000  0.0000E+00  0.0000E+00  0.0000E+00
    1354   295.00000  0.0000E+00  0.0000E+00  0.0000E+00
    1355   295.00000  0.0000E+00  0.0000E+00  0.0000E+00
    1356   295.00000  0.0000E+00  0.0000E+00  0.0000E+00
    1357   295.00000  0.0000E+00  0.0000E+00  0.0000E+00
    1358   295.00000  0.0000E+00  0.0000E+00  0.0000E+00
    1359   295.00000  0.0000E+00  0.0000E+00  0.0000E+00
    1360   295.00000  0.0000E+00  0.0000E+00  0.0000E+00
    1361   295.00000  0.0000E+00  0.0000E+00  0.0000E+00
    1362   295.00000  0.0000E+00  0.0000E+00  0.0000E+00
    1363   295.00000  0.0000E+00  0.0000E+00  0.0000E+00
    1364   295.00000  0.0000E+00  0.0000E+00  0.0000E+00
    1365   295.00000  0.0000E+00  0.0000E+00  0.0000E+00
    1366   295.00000  0.0000E+00  0.0000E+00  0.0000E+00
    1367   295.00000  0.0000E+00  0.0000E+00  0.0000E+00
    1368   295.00000  0.0000E+00  0.0000E+00  0.0000E+00
    1369   295.00000  0.0000E+00  0.0000E+00  0.0000E+00
    1370   295.00000  0.0000E+00  0.0000E+00  0.0000E+00
    1371   295.00000  0.0000E+00  0.0000E+00  0.0000E+00
    1372   295.00000  0.0000E+00  0.0000E+00  0.0000E+00
    1373   295.00000  0.0000E+00  0.0000E+00  0.0000E+00
    1374   295.00000  0.0000E+00  0.0000E+00  0.0000E+00
    1375   295.00000  0.0000E+00  0.0000E+00  0.0000E+00
    1376   295.00000  0.0000E+00  0.0000E+00  0.0000E+00
    1377   295.00000  0.0000E+00  0.0000E+00  0.0000E+00
    1378   295.00000  0.0000E+00  0.0000E+00  0.0000E+00
    1379   295.00000  0.0000E+00  0.0000E+00  0.0000E+00
    1380   295.00000  0.0000E+00  0.0000E+00  0.0000E+00
    1381   295.00000  0.0000E+00  0.0000E+00  0.0000E+00
    1382   295.00000  0.0000E+00  0.0000E+00  0.0000E+00
    1383   295.00000  0.0000E+00  0.0000E+00  0.0000E+00
    1384   295.00000  0.0000E+00  0.0000E+00  0.0000E+00
    1385   295.00000  0.0000E+00  0.0000E+00  0.0000E+00
    1386   295.00000  0.0000E+00  0.0000E+00  0.0000E+00
    1387   295.00000  0.0000E+00  0.0000E+00  0.0000E+00
    1388   295.00000  0.0000E+00  0.0000E+00  0.0000E+00
    1389   295.00000  0.0000E+00  0.0000E+00  0.0000E+00
    1390   295.00000  0.0000E+00  0.0000E+00  0.0000E+00
    1391   295.00000  0.0000E+00  0.0000E+00  0.0000E+00
    1392   295.00000  0.0000E+00  0.0000E+00  0.0000E+00
    1393   295.00000  0.0000E+00  0.0000E+00  0.0000E+00
    1394   295.00000  0.0000E+00  0.0000E+00  0.0000E+00
[...]
     14990            2
 0.000E+00 0.000E+00
     14991            2
 0.000E+00 0.000E+00
     14992            2
 0.000E+00 0.000E+00
     14993            2
 0.000E+00 0.000E+00
     14994            2
 0.000E+00 0.000E+00
     14995            2
 0.000E+00 0.000E+00
     14996            2
 0.000E+00 0.000E+00
     14997            2
 0.000E+00 0.000E+00
     14998            2
 0.000E+00 0.000E+00
     14999            2
 0.000E+00 0.000E+00
     15000            2
 0.000E+00 0.000E+00
     15001            2
 0.000E+00 0.000E+00
     15002            2
 0.000E+00 0.000E+00
     15003            2
 0.000E+00 0.000E+00
     15004            2
 0.000E+00 0.000E+00
     15005            2
 0.000E+00 0.000E+00
     15006            2
 0.000E+00 0.000E+00
     15007            2
 0.000E+00 0.000E+00
     15008            2
 0.000E+00 0.000E+00
     15009            2
 0.000E+00 0.000E+00
     15010            2
 0.000E+00 0.000E+00
     15011            2
 0.000E+00 0.000E+00
     15012            2
 0.000E+00 0.000E+00
     15013            2
 0.000E+00 0.000E+00
     15014            2
 0.000E+00 0.000E+00
     15015            2
 0.000E+00 0.000E+00
     15016            2
 0.000E+00 0.000E+00
     15017            2
 0.000E+00 0.000E+00
     15018            2
 0.000E+00 0.000E+00
     15019            2
 0.000E+00 0.000E+00
     15020            2
 0.000E+00 0.000E+00
     15021            2
 0.000E+00 0.000E+00
     15022            2
 0.000E+00 0.000E+00
     15023            2
 0.000E+00 0.000E+00
     15024            2
 0.000E+00 0.000E+00
     15025            2
 0.000E+00 0.000E+00
     15026            2
 0.000E+00 0.000E+00
     15027            2
 0.000E+00 0.000E+00
     15028            2
 0.000E+00 0.000E+00
     15029            2
 0.000E+00 0.000E+00
     15030            2
 0.000E+00 0.000E+00
     15031            2
 0.000E+00 0.000E+00
     15032            2
 0.000E+00 0.000E+00
     15033            2
 0.000E+00 0.000E+00
     15034            2
 0.000E+00 0.000E+00
     15035            2
 0.000E+00 0.000E+00
     15036            2
 0.000E+00 0.000E+00
     15037            2
 0.000E+00 0.000E+00
     15038            2
 0.000E+00 0.000E+00
     15039            2
 0.000E+00 0.000E+00
     15040            2
 0.000E+00 0.000E+00
     15041            2
 0.000E+00 0.000E+00
     15042            2
 0.000E+00 0.000E+00
     15043            2
 0.000E+00 0.000E+00
     15044            2
 0.000E+00 0.000E+00
     15045            2
 0.000E+00 0.000E+00
     15046            2
 0.000E+00 0.000E+00
     15047            2
 0.000E+00 0.000E+00
     15048            2
 0.000E+00 0.000E+00
     15049            2
 0.000E+00 0.000E+00
     15050            2
 0.000E+00 0.000E+00
     15051            2
 0.000E+00 0.000E+00
     15052            2
 0.000E+00 0.000E+00
     15053            2
 0.000E+00 0.000E+00
     15054            2
 0.000E+00 0.000E+00
     15055            2
 0.000E+00 0.000E+00
     15056            2
 0.000E+00 0.000E+00
     15057            2
 0.000E+00 0.000E+00
     15058            2
 0.000E+00 0.000E+00
     15059            2
 0.000E+00 0.000E+00
     15060            2
 0.000E+00 0.000E+00
     15061            2
 0.000E+00 0.000E+00
     15062            2
 0.000E+00 0.000E+00
     15063            2
 0.000E+00 0.000E+00
     15064            2
 0.000E+00 0.000E+00
     15065            2
 0.000E+00 0.000E+00
     15066            2
 0.000E+00 0.000E+00
     15067            2
 0.000E+00 0.000E+00
     15068            2
 0.000E+00 0.000E+00
     15069            2
 0.000E+00 0.000E+00
     15070            2
 0.000E+00 0.000E+00
     15071            2
 0.000E+00 0.000E+00
     15072            2
 0.000E+00 0.000E+00
     15073            2
 0.000E+00 0.000E+00
     15074            2
 0.000E+00 0.000E+00
     15075            2
 0.000E+00 0.000E+00
     15076            2
 0.000E+00 0.000E+00
     15077            2
 0.000E+00 0.000E+00
     15078            2
 0.000E+00 0.000E+00
     15079            2
 0.000E+00 0.000E+00
     15080            2
 0.000E+00 0.000E+00
     15081            2
 0.000E+00 0.000E+00
     15082            2
 0.000E+00 0.000E+00
     15083            2
 0.000E+00 0.000E+00
     15084            2
 0.000E+00 0.000E+00
     15085            2
 0.000E+00 0.000E+00
     15086            2
 0.000E+00 0.000E+00
     15087            2
 0.000E+00 0.000E+00
     15088            2
 0.000E+00 0.000E+00
     15089            2
 0.000E+00 0.000E+00
     15090            2
 0.000E+00 0.000E+00
     15091            2
 0.000E+00 0.000E+00
     15092            2
 0.000E+00 0.000E+00
     15093            2
 0.000E+00 0.000E+00
     15094            2
 0.000E+00 0.000E+00
     15095            2
 0.000E+00 0.000E+00
     15096            2
 0.000E+00 0.000E+00
     15097            2
 0.000E+00 0.000E+00
     15098            2
 0.000E+00 0.000E+00
     15099            2
 0.000E+00 0.000E+00
     15100            2
 0.000E+00 0.000E+00
     15101            2
 0.000E+00 0.000E+00
     15102            2
 0.000E+00 0.000E+00
     15103            2
 0.000E+00 0.000E+00
     15104            2
 0.000E+00 0.000E+00
     15105            2
 0.000E+00 0.000E+00
     15106            2
 0.000E+00 0.000E+00
     15107            2
 0.000E+00 0.000E+00
     15108            2
 0.000E+00 0.000E+00
     15109            2
 0.000E+00 0.000E+00
     15110            2
 0.000E+00 0.000E+00
     15111            2
 0.000E+00 0.000E+00
     15112            2
 0.000E+00 0.000E+00
     15113            2
 0.000E+00 0.000E+00
     15114            2
 0.000E+00 0.000E+00
     15115            2
 0.000E+00 0.000E+00
     15116            2
 0.000E+00 0.000E+00
     15117            2
 0.000E+00 0.000E+00
     15118            2
 0.000E+00 0.000E+00
     15119            2
 0.000E+00 0.000E+00
     15120            2
 0.000E+00 0.000E+00
     15121            2
 0.000E+00 0.000E+00
     15122            2
 0.000E+00 0.000E+00
     15123            2
 0.000E+00 0.000E+00
     15124            2
 0.000E+00 0.000E+00
     15125            2
 0.000E+00 0.000E+00
     15126            2
 0.000E+00 0.000E+00
     15127            2
 0.000E+00 0.000E+00
     15128            2
 0.000E+00 0.000E+00
     15129            2
 0.000E+00 0.000E+00
     15130            2
 0.000E+00 0.000E+00
     15131            2
 0.000E+00 0.000E+00
     15132            2
 0.000E+00 0.000E+00
     15133            2
 0.000E+00 0.000E+00
     15134            2
 0.000E+00 0.000E+00
     15135            2
 0.000E+00 0.000E+00
     15136            2
 0.000E+00 0.000E+00
     15137            2
 0.000E+00 0.000E+00
     15138            2
 0.000E+00 0.000E+00
     15139            2
 0.000E+00 0.000E+00
     15140            2
 0.000E+00 0.000E+00
     15141            2
 0.000E+00 0.000E+00
     15142            2
 0.000E+00 0.000E+00
     15143            2
 0.000E+00 0.000E+00
     15144            2
 0.000E+00 0.000E+00
     15145            2
 0.000E+00 0.000E+00
     15146            2
 0.000E+00 0.000E+00
     15147            2
 0.000E+00 0.000E+00
     15148            2
 0.000E+00 0.000E+00
     15149            2
 0.000E+00 0.000E+00
     15150            2
 0.000E+00 0.000E+00
     15151            2
 0.000E+00 0.000E+00
     15152            2
 0.000E+00 0.000E+00
     15153            2
 0.000E+00 0.000E+00
     15154            2
 0.000E+00 0.000E+00
     15155            2
 0.000E+00 0.000E+00
     15156            2
 0.000E+00 0.000E+00
     15157            2
 0.000E+00 0.000E+00
     15158            2
 0.000E+00 0.000E+00
     15159            2
 0.000E+00 0.000E+00
     15160            2
 0.000E+00 0.000E+00
     15161            2
 0.000E+00 0.000E+00
     15162            2
 0.000E+00 0.000E+00
     15163            2
 0.000E+00 0.000E+00
     15164            2
 0.000E+00 0.000E+00
     15165            2
 0.000E+00 0.000E+00
     15166            2
 0.000E+00 0.000E+00
     15167            2
 0.000E+00 0.000E+00
     15168            2
 0.000E+00 0.000E+00
     15169            2
 0.000E+00 0.000E+00
     15170            2
 0.000E+00 0.000E+00
     15171            2
 0.000E+00 0.000E+00
     15172            2
 0.000E+00 0.000E+00
     15173            2
 0.000E+00 0.000E+00
     15174            2
 0.000E+00 0.000E+00
     15175            2
 0.000E+00 0.000E+00
     15176            2
 0.000E+00 0.000E+00
     15177            2
 0.000E+00 0.000E+00
     15178            2
 0.000E+00 0.000E+00
     15179            2
 0.000E+00 0.000E+00
     15180            2
 0.000E+00 0.000E+00
     15181            2
 0.000E+00 0.000E+00
     15182            2
 0.000E+00 0.000E+00
     15183            2
 0.000E+00 0.000E+00
     15184            2
 0.000E+00 0.000E+00
     15185            2
 0.000E+00 0.000E+00
     15186            2
 0.000E+00 0.000E+00
     15187            2
 0.000E+00 0.000E+00
     15188            2
 0.000E+00 0.000E+00
     15189            2
 0.000E+00 0.000E+00
     15190            2
 0.000E+00 0.000E+00
     15191            2
 0.000E+00 0.000E+00
     15192            2
 0.000E+00 0.000E+00
     15193            2
 0.000E+00 0.000E+00
     15194            2
 0.000E+00 0.000E+00
     15195            2
 0.000E+00 0.000E+00
     15196            2
 0.000E+00 0.000E+00
     15197            2
 0.000E+00 0.000E+00
     15198            2
 0.000E+00 0.000E+00
     15199            2
 0.000E+00 0.000E+00
     15200            2
 0.000E+00 0.000E+00
     15201            2
 0.000E+00 0.000E+00
     15202            2
 0.000E+00 0.000E+00
     15203            2
 0.000E+00 0.000E+00
     15204            2
 0.000E+00 0.000E+00
     15205            2
 0.000E+00 0.000E+00
     15206            2
 0.000E+00 0.000E+00
     15207            2
 0.000E+00 0.000E+00
     15208            2
 0.000E+00 0.000E+00
     15209            2
 0.000E+00 0.000E+00
     15210            2
 0.000E+00 0.000E+00
     15211            2
 0.000E+00 0.000E+00
     15212            2
 0.000E+00 0.000E+00
     15213            2
 0.000E+00 0.000E+00
     15214            2
 0.000E+00 0.000E+00
     15215            2
 0.000E+00 0.000E+00
     15216            2
 0.000E+00 0.000E+00
     15217            2
 0.000E+00 0.000E+00
     15218            2
 0.000E+00 0.000E+00
     15219            2
 0.000E+00 0.000E+00
     15220            2
 0.000E+00 0.000E+00
     15221            2
 0.000E+00 0.000E+00
     15222            2
 0.000E+00 0.000E+00
     15223            2
 0.000E+00 0.000E+00
     15224            2
 0.000E+00 0.000E+00
     15225            2
 0.000E+00 0.000E+00
     15226            2
 0.000E+00 0.000E+00
     15227            2
 0.000E+00 0.000E+00
     15228            2
 0.000E+00 0.000E+00
     15229            2
 0.000E+00 0.000E+00
     15230            2
 0.000E+00 0.000E+00
     15231            2
 0.000E+00 0.000E+00
     15232            2
 0.000E+00 0.000E+00
     15233            2
 0.000E+00 0.000E+00
     15234            2
 0.000E+00 0.000E+00
     15235            2
 0.000E+00 0.000E+00
     15236            2
 0.000E+00 0.000E+00
     15237            2
 0.000E+00 0.000E+00
     15238            2
 0.000E+00 0.000E+00
     15239            2
 0.000E+00 0.000E+00
     15240            2
 0.000E+00 0.000E+00
     15241            2
 0.000E+00 0.000E+00
     15242            2
 0.000E+00 0.000E+00
     15243            2
 0.000E+00 0.000E+00
     15244            2
 0.000E+00 0.000E+00
     15245            2
 0.000E+00 0.000E+00
     15246            2
 0.000E+00 0.000E+00
     15247            2
 0.000E+00 0.000E+00
     15248            2
 0.000E+00 0.000E+00
     15249            2
 0.000E+00 0.000E+00
     15250            2
 0.000E+00 0.000E+00
     15251            2
 0.000E+00 0.000E+00
     15252            2
 0.000E+00 0.000E+00
     15253            2
 0.000E+00 0.000E+00
     15254            2
 0.000E+00 0.000E+00
     15255            2
 0.000E+00 0.000E+00
     15256            2
 0.000E+00 0.000E+00
     15257            2
 0.000E+00 0.000E+00
     15258            2
 0.000E+00 0.000E+00
     15259            2
 0.000E+00 0.000E+00
     15260            2
 0.000E+00 0.000E+00
     15261            2
 0.000E+00 0.000E+00
     15262            2
 0.000E+00 0.000E+00
     15263            2
 0.000E+00 0.000E+00
     15264            2
 0.000E+00 0.000E+00
     15265            2
 0.000E+00 0.000E+00
     15266            2
 0.000E+00 0.000E+00
     15267            2
 0.000E+00 0.000E+00
     15268            2
 0.000E+00 0.000E+00
     15269            2
 0.000E+00 0.000E+00
     15270            2
 0.000E+00 0.000E+00
     15271            2
 0.000E+00 0.000E+00
     15272            2
 0.000E+00 0.000E+00
     15273            2
 0.000E+00 0.000E+00
     15274            2
 0.000E+00 0.000E+00
     15275            2
 0.000E+00 0.000E+00
     15276            2
 0.000E+00 0.000E+00
     15277            2
 0.000E+00 0.000E+00
     15278            2
 0.000E+00 0.000E+00
     15279            2
 0.000E+00 0.000E+00
     15280            2
 0.000E+00 0.000E+00
     15281            2
 0.000E+00 0.000E+00
     15282            2
 0.000E+00 0.000E+00
     15283            2
 0.000E+00 0.000E+00
     15284            2
 0.000E+00 0.000E+00
     15285            2
 0.000E+00 0.000E+00
     15286            2
 0.000E+00 0.000E+00
     15287            2
 0.000E+00 0.000E+00
     15288            2
 0.000E+00 0.000E+00
     15289            2
 0.000E+00 0.000E+00
     15290            2
 0.000E+00 0.000E+00
     15291            2
 0.000E+00 0.000E+00
     15292            2
 0.000E+00 0.000E+00
     15293            2
 0.000E+00 0.000E+00
     15294            2
 0.000E+00 0.000E+00
     15295            2
 0.000E+00 0.000E+00
     15296            2
 0.000E+00 0.000E+00
     15297            2
 0.000E+00 0.000E+00
     15298            2
 0.000E+00 0.000E+00
     15299            2
 0.000E+00 0.000E+00
     15300            2
 0.000E+00 0.000E+00
     15301            2
 0.000E+00 0.000E+00
     15302            2
 0.000E+00 0.000E+00
     15303            2
 0.000E+00 0.000E+00
     15304            2
 0.000E+00 0.000E+00
     15305            2
 0.000E+00 0.000E+00
     15306            2
 0.000E+00 0.000E+00
     15307            2
 0.000E+00 0.000E+00
     15308            2
 0.000E+00 0.000E+00
     15309            2
 0.000E+00 0.000E+00
     15310            2
 0.000E+00 0.000E+00
     15311            2
 0.000E+00 0.000E+00
     15312            2
 0.000E+00 0.000E+00
     15313            2
 0.000E+00 0.000E+00
     15314            2
 0.000E+00 0.000E+00
     15315            2
 0.000E+00 0.000E+00
     15316            2
 0.000E+00 0.000E+00
     15317            2
 0.000E+00 0.000E+00
     15318            2
 0.000E+00 0.000E+00
     15319            2
 0.000E+00 0.000E+00
     15320            2
 0.000E+00 0.000E+00
     15321            2
 0.000E+00 0.000E+00
     15322            2
 0.000E+00 0.000E+00
     15323            2
 0.000E+00 0.000E+00
     15324            2
 0.000E+00 0.000E+00
     15325            2
 0.000E+00 0.000E+00
     15326            2
 0.000E+00 0.000E+00
     15327            2
 0.000E+00 0.000E+00
     15328            2
 0.000E+00 0.000E+00
     15329            2
 0.000E+00 0.000E+00
     15330            2
 0.000E+00 0.000E+00
     15331            2
 0.000E+00 0.000E+00
     15332            2
 0.000E+00 0.000E+00
     15333            2
 0.000E+00 0.000E+00
     15334            2
 0.000E+00 0.000E+00
     15335            2
 0.000E+00 0.000E+00
     15336            2
 0.000E+00 0.000E+00
     15337            2
 0.000E+00 0.000E+00
     15338            2
 0.000E+00 0.000E+00
     15339            2
 0.000E+00 0.000E+00
     15340            2
 0.000E+00 0.000E+00
     15341            2
 0.000E+00 0.000E+00
     15342            2
 0.000E+00 0.000E+00
     15343            2
 0.000E+00 0.000E+00
     15344            2
 0.000E+00 0.000E+00
     15345            2
 0.000E+00 0.000E+00
     15346            2
 0.000E+00 0.000E+00
     15347            2
 0.000E+00 0.000E+00
     15348            2
 0.000E+00 0.000E+00
     15349            2
 0.000E+00 0.000E+00
     15350            2
 0.000E+00 0.000E+00
     15351            2
 0.000E+00 0.000E+00
     15352            2
 0.000E+00 0.000E+00
     15353            2
 0.000E+00 0.000E+00
     15354            2
 0.000E+00 0.000E+00
     15355            2
 0.000E+00 0.000E+00
     15356            2
 0.000E+00 0.000E+00
     15357            2
 0.000E+00 0.000E+00
     15358            2
 0.000E+00 0.000E+00
     15359            2
 0.000E+00 0.000E+00
     15360            2
 0.000E+00 0.000E+00
     15361            2
 0.000E+00 0.000E+00
     15362            2
 0.000E+00 0.000E+00
     15363            2
 0.000E+00 0.000E+00
     15364            2
 0.000E+00 0.000E+00
     15365            2
 0.000E+00 0.000E+00
     15366            2
 0.000E+00 0.000E+00
     15367            2
 0.000E+00 0.000E+00
     15368            2
 0.000E+00 0.000E+00
     15369            2
 0.000E+00 0.000E+00
     15370            2
 0.000E+00 0.000E+00
     15371            2
 0.000E+00 0.000E+00
     15372            2
 0.000E+00 0.000E+00
     15373            2
 0.000E+00 0.000E+00
     15374            2
 0.000E+00 0.000E+00
     15375            2
 0.000E+00 0.000E+00
     15376            2
 0.000E+00 0.000E+00
     15377            2
 0.000E+00 0.000E+00
     15378            2
 0.000E+00 0.000E+00
     15379            2
 0.000E+00 0.000E+00
     15380            2
 0.000E+00 0.000E+00
     15381            2
 0.000E+00 0.000E+00
     15382            2
 0.000E+00 0.000E+00
     15383            2
 0.000E+00 0.000E+00
     15384            2
 0.000E+00 0.000E+00
     15385            2
 0.000E+00 0.000E+00
     15386            2
 0.000E+00 0.000E+00
     15387            2
 0.000E+00 0.000E+00
     15388            2
 0.000E+00 0.000E+00
     15389            2
 0.000E+00 0.000E+00
     15390            2
 0.000E+00 0.000E+00

 History variables for solids at mid-point.
   element # hist. var.
   hist. variable 1...N


 History variables for shells at in-plane mid-point.
   element # hist. var. # IP through thickness
   hist. variable 1...N from bottom to top integration point


*TEMPERATURE_PART       npart=         3
    part temperature
       1  2.9500E+02
       2  2.9500E+02
       3  2.9500E+02

 WARNING: Surfaces with temperature boundary conditions are not included
          in the heat transfer data below. Therefore, an overall energy
          balance may not sum to 0.

 The PART is the frame of reference for boundary condition segment
 set heat transfer data. Positive heat flow is into the part and negative
 heat flow is out of the part.

 energy == energy over this time step of length dt=  0.000000E+00

*ENERGY_BOUNDARY         nfbc=         0     ncbc=         1     nrbc=         0
   bc type   seg set   [energy/time]        [energy]       T_average
convection    420420      0.0000E+00      0.0000E+00      2.9500E+02
                         -----------     -----------
          energy sum      0.0000E+00      0.0000E+00


 contact surface heat transfer rate
 positive heat flow is in direction of master-->slave

*ENERGY_CONTACT         ncont=         2
    order# contact_id  [energy/time]        [energy]       T_avg_slv       T_avg_msr
         3     80086      0.0000E+00      0.0000E+00      0.0000E+00      0.0000E+00
         4      8009      0.0000E+00      0.0000E+00      0.0000E+00      0.0000E+00

*ENERGY_PART            npart=         3
    part #  Qgen_chg[energy]  IE_chg[energy]
         1      0.0000E+00      0.0000E+00
         2      0.0000E+00      0.0000E+00
         3      0.0000E+00      0.0000E+00
               -----------     -----------
                0.0000E+00      0.0000E+00

 number of solution iterations  =    0

 QA temperature norm, Tmin, Tmax=   4.200618E+04   2.950000E+02   2.950000E+02
